@<TRIPOS>MOLECULE
*****
 38 43 0 0 0
SMALL
GASTEIGER

@<TRIPOS>ATOM
      1 C         137.8470  142.9206  162.9625 C.3     1  UNL1        0.1429
      2 O         137.5497  144.3195  162.5100 O.3     1  UNL1       -0.3818
      3 C         138.0045  142.6478  161.4959 C.3     1  UNL1        0.1713
      4 O         138.3533  141.1986  161.3288 O.3     1  UNL1       -0.3497
      5 C         138.4113  140.5756  162.6921 C.3     1  UNL1        0.1614
      6 C         138.6627  139.2949  163.4314 C.3     1  UNL1        0.1143
      7 C         138.5052  139.5676  164.8979 C.3     1  UNL1        0.1604
      8 O         138.1565  141.0170  165.0650 O.3     1  UNL1       -0.3497
      9 C         138.0984  141.6399  163.7017 C.3     1  UNL1        0.1703
     10 H         137.6012  144.3642  161.5424 H       1  UNL1        0.2104
     11 N         139.0106  137.9734  162.8127 N.3     1  UNL1       -0.2908
     12 H         139.0123  138.1127  161.8023 H       1  UNL1        0.1237
     13 C         140.3057  137.3007  163.1594 C.3     1  UNL1        0.0958
     14 C         141.5205  138.1254  163.4660 C.ar    1  UNL1       -0.0032
     15 C         142.2264  137.9614  164.7792 C.ar    1  UNL1        0.0004
     16 C         143.4414  138.7861  165.0858 C.ar    1  UNL1        0.0398
     17 C         143.9504  139.7747  164.0791 C.ar    1  UNL1        0.1724
     18 C         143.2444  139.9386  162.7657 C.ar    1  UNL1        0.1721
     19 C         142.0295  139.1140  162.4592 C.ar    1  UNL1        0.0371
     20 O         143.7534  140.9273  161.7590 O.3     1  UNL1       -0.4684
     21 C         144.9683  141.7520  162.0655 C.3     1  UNL1        0.2526
     22 C         145.6742  141.5880  163.3788 C.3     1  UNL1        0.2526
     23 O         145.1652  140.5994  164.3856 O.3     1  UNL1       -0.4684
     24 C         137.6274  143.4858  164.3344 C.3     1  UNL1        0.0367
     25 C         138.6073  144.4665  164.9073 C.3     1  UNL1        0.0328
     26 C         140.7298  141.7355  167.7859 C.ar    1  UNL1        0.2250
     27 C         142.2033  141.4941  167.6428 C.ar    1  UNL1        0.0593
     28 C         142.9693  142.1630  166.5401 C.ar    1  UNL1        0.0254
     29 C         142.2618  143.0733  165.5806 C.ar    1  UNL1        0.0990
     30 N         143.0278  143.7422  164.4779 N.ar    1  UNL1       -0.2400
     31 C         142.3203  144.6524  163.5184 C.ar    1  UNL1        0.1281
     32 C         140.8467  144.8939  163.6615 C.ar    1  UNL1        0.1566
     33 F         140.1392  145.8042  162.7019 F       1  UNL1       -0.2028
     34 C         140.0807  144.2251  164.7642 C.ar    1  UNL1        0.0261
     35 C         140.7883  143.3147  165.7237 C.ar    1  UNL1        0.1002
     36 N         140.0223  142.6458  166.8264 N.ar    1  UNL1       -0.2104
     37 C         140.6322  140.0337  169.7466 C.3     1  UNL1        0.2542
     38 O         139.9638  141.0667  168.8886 O.3     1  UNL1       -0.4561
@<TRIPOS>BOND
     1    37    38    1
     2    38    26    1
     3    26    27   ar
     4    27    28   ar
     5    28    29   ar
     6    29    30   ar
     7    30    31   ar
     8    31    32   ar
     9    32    33    1
    10    32    34   ar
    11    34    25    1
    12    25    24    1
    13    24     1    1
    14     1     2    1
    15     1     3    1
    16     3     4    1
    17     5     4    1
    18     5     6    1
    19     6    11    1
    20    11    13    1
    21    13    14    1
    22    14    15   ar
    23    15    16   ar
    24    16    17   ar
    25    17    18   ar
    26    18    19   ar
    27    18    20    1
    28    20    21    1
    29    21    22    1
    30    22    23    1
    31     6     7    1
    32     7     8    1
    33     9     8    1
    34    34    35   ar
    35    35    36   ar
    36    36    26   ar
    37    35    29   ar
    38     9     1    1
    39     9     5    1
    40    19    14   ar
    41    23    17    1
    42     2    10    1
    43    11    12    1
@<TRIPOS>MOLECULE
*****
 38 43 0 0 0
SMALL
GASTEIGER

@<TRIPOS>ATOM
      1 C         141.0578  137.8586  162.9175 C.3     1  UNL1        0.1429
      2 O         139.8455  137.1410  162.4022 O.3     1  UNL1       -0.3818
      3 C         141.3854  138.0220  161.4629 C.3     1  UNL1        0.1713
      4 O         142.6787  138.7749  161.3608 O.3     1  UNL1       -0.3497
      5 C         143.1504  139.0769  162.7523 C.3     1  UNL1        0.1614
      6 C         144.2412  139.7289  163.5491 C.3     1  UNL1        0.1143
      7 C         143.9135  139.5655  165.0038 C.3     1  UNL1        0.1604
      8 O         142.6202  138.8125  165.1059 O.3     1  UNL1       -0.3497
      9 C         142.1486  138.5106  163.7144 C.3     1  UNL1        0.1703
     10 H         139.8628  137.1325  161.4324 H       1  UNL1        0.2104
     11 N         145.4477  140.4226  162.9897 N.3     1  UNL1       -0.2908
     12 H         145.4589  140.2318  161.9878 H       1  UNL1        0.1237
     13 C         145.6015  141.9061  163.1497 C.3     1  UNL1        0.0958
     14 C         144.3980  142.7977  163.0697 C.ar    1  UNL1       -0.0032
     15 C         143.7667  143.3202  164.3261 C.ar    1  UNL1        0.0004
     16 C         142.5631  144.2119  164.2460 C.ar    1  UNL1        0.0398
     17 C         141.9908  144.5811  162.9096 C.ar    1  UNL1        0.1724
     18 C         142.6222  144.0586  161.6531 C.ar    1  UNL1        0.1721
     19 C         143.8257  143.1669  161.7332 C.ar    1  UNL1        0.0371
     20 O         142.0499  144.4279  160.3167 O.3     1  UNL1       -0.4684
     21 C         140.8463  145.3196  160.2366 C.3     1  UNL1        0.2526
     22 C         140.2151  145.8420  161.4930 C.3     1  UNL1        0.2526
     23 O         140.7873  145.4728  162.8295 O.3     1  UNL1       -0.4684
     24 C         140.4768  137.5452  164.2644 C.3     1  UNL1        0.0367
     25 C         139.1596  138.1378  164.6693 C.3     1  UNL1        0.0328
     26 C         140.8350  141.1999  167.5095 C.ar    1  UNL1        0.2250
     27 C         140.5675  142.6584  167.2832 C.ar    1  UNL1        0.0593
     28 C         139.7415  143.0961  166.1101 C.ar    1  UNL1        0.0254
     29 C         139.1831  142.0755  165.1633 C.ar    1  UNL1        0.0990
     30 N         138.3571  142.5133  163.9903 N.ar    1  UNL1       -0.2400
     31 C         137.7987  141.4926  163.0435 C.ar    1  UNL1        0.1281
     32 C         138.0662  140.0341  163.2699 C.ar    1  UNL1        0.1566
     33 F         137.5077  139.0134  162.3231 F       1  UNL1       -0.2028
     34 C         138.8921  139.5963  164.4430 C.ar    1  UNL1        0.0261
     35 C         139.4506  140.6170  165.3897 C.ar    1  UNL1        0.1002
     36 N         140.2765  140.1792  166.5628 N.ar    1  UNL1       -0.2104
     37 C         142.4954  139.5191  168.5902 C.3     1  UNL1        0.2542
     38 O         141.6609  140.7621  168.6826 O.3     1  UNL1       -0.4561
@<TRIPOS>BOND
     1    37    38    1
     2    38    26    1
     3    26    27   ar
     4    27    28   ar
     5    28    29   ar
     6    29    30   ar
     7    30    31   ar
     8    31    32   ar
     9    32    33    1
    10    32    34   ar
    11    34    25    1
    12    25    24    1
    13    24     1    1
    14     1     2    1
    15     1     3    1
    16     3     4    1
    17     5     4    1
    18     5     6    1
    19     6    11    1
    20    11    13    1
    21    13    14    1
    22    14    15   ar
    23    15    16   ar
    24    16    17   ar
    25    17    18   ar
    26    18    19   ar
    27    18    20    1
    28    20    21    1
    29    21    22    1
    30    22    23    1
    31     6     7    1
    32     7     8    1
    33     9     8    1
    34    34    35   ar
    35    35    36   ar
    36    36    26   ar
    37    35    29   ar
    38     9     1    1
    39     9     5    1
    40    19    14   ar
    41    23    17    1
    42     2    10    1
    43    11    12    1
@<TRIPOS>MOLECULE
*****
 38 43 0 0 0
SMALL
GASTEIGER

@<TRIPOS>ATOM
      1 C         137.9410  142.2419  162.9065 C.3     1  UNL1        0.1429
      2 O         136.7614  141.3499  163.1568 O.3     1  UNL1       -0.3818
      3 C         137.8487  142.5135  164.3788 C.3     1  UNL1        0.1713
      4 O         138.9390  143.4776  164.7415 O.3     1  UNL1       -0.3497
      5 C         139.7053  143.8019  163.4934 C.3     1  UNL1        0.1614
      6 C         140.8527  144.5981  162.9462 C.3     1  UNL1        0.1143
      7 C         140.9450  144.3264  161.4739 C.3     1  UNL1        0.1604
      8 O         139.8546  143.3622  161.1112 O.3     1  UNL1       -0.3497
      9 C         139.0885  143.0381  162.3593 C.3     1  UNL1        0.1703
     10 H         136.5261  141.3813  164.0973 H       1  UNL1        0.2104
     11 N         141.7502  145.5065  163.7331 N.3     1  UNL1       -0.2908
     12 H         141.2816  145.6866  164.6210 H       1  UNL1        0.1237
     13 C         143.1497  145.0778  164.0614 C.3     1  UNL1        0.0958
     14 C         143.4635  143.6234  164.2513 C.ar    1  UNL1       -0.0032
     15 C         144.4096  142.9318  163.3151 C.ar    1  UNL1        0.0004
     16 C         144.7234  141.4772  163.5051 C.ar    1  UNL1        0.0398
     17 C         144.0910  140.7144  164.6312 C.ar    1  UNL1        0.1724
     18 C         143.1449  141.4061  165.5674 C.ar    1  UNL1        0.1721
     19 C         142.8311  142.8605  165.3775 C.ar    1  UNL1        0.0371
     20 O         142.5125  140.6433  166.6936 O.3     1  UNL1       -0.4684
     21 C         142.8264  139.1887  166.8835 C.3     1  UNL1        0.2526
     22 C         143.7724  138.4971  165.9474 C.3     1  UNL1        0.2526
     23 O         144.4048  139.2599  164.8211 O.3     1  UNL1       -0.4684
     24 C         137.7868  141.7837  161.4866 C.3     1  UNL1        0.0367
     25 C         137.7929  140.3183  161.1664 C.3     1  UNL1        0.0328
     26 C         139.0916  137.8728  164.7137 C.ar    1  UNL1        0.2250
     27 C         140.3882  137.1198  164.6713 C.ar    1  UNL1        0.0593
     28 C         141.2519  137.1820  163.4465 C.ar    1  UNL1        0.0254
     29 C         140.8190  137.9971  162.2641 C.ar    1  UNL1        0.0990
     30 N         141.6828  138.0593  161.0393 N.ar    1  UNL1       -0.2400
     31 C         141.2499  138.8744  159.8569 C.ar    1  UNL1        0.1281
     32 C         139.9533  139.6275  159.8992 C.ar    1  UNL1        0.1566
     33 F         139.5204  140.4426  158.7168 F       1  UNL1       -0.2028
     34 C         139.0895  139.5653  161.1240 C.ar    1  UNL1        0.0261
     35 C         139.5225  138.7501  162.3065 C.ar    1  UNL1        0.1002
     36 N         138.6587  138.6879  163.5313 N.ar    1  UNL1       -0.2104
     37 C         137.9598  139.0555  166.7311 C.3     1  UNL1        0.2542
     38 O         138.2278  137.8106  165.9385 O.3     1  UNL1       -0.4561
@<TRIPOS>BOND
     1    37    38    1
     2    38    26    1
     3    26    27   ar
     4    27    28   ar
     5    28    29   ar
     6    29    30   ar
     7    30    31   ar
     8    31    32   ar
     9    32    33    1
    10    32    34   ar
    11    34    25    1
    12    25    24    1
    13    24     1    1
    14     1     2    1
    15     1     3    1
    16     3     4    1
    17     5     4    1
    18     5     6    1
    19     6    11    1
    20    11    13    1
    21    13    14    1
    22    14    15   ar
    23    15    16   ar
    24    16    17   ar
    25    17    18   ar
    26    18    19   ar
    27    18    20    1
    28    20    21    1
    29    21    22    1
    30    22    23    1
    31     6     7    1
    32     7     8    1
    33     9     8    1
    34    34    35   ar
    35    35    36   ar
    36    36    26   ar
    37    35    29   ar
    38     9     1    1
    39     9     5    1
    40    19    14   ar
    41    23    17    1
    42     2    10    1
    43    11    12    1
@<TRIPOS>MOLECULE
*****
 38 43 0 0 0
SMALL
GASTEIGER

@<TRIPOS>ATOM
      1 C         138.1789  140.5245  163.3779 C.3     1  UNL1        0.1429
      2 O         138.1449  139.0292  163.2642 O.3     1  UNL1       -0.3818
      3 C         138.4204  140.4742  161.8983 C.3     1  UNL1        0.1713
      4 O         138.5516  141.8836  161.4020 O.3     1  UNL1       -0.3497
      5 C         138.3912  142.8049  162.5747 C.3     1  UNL1        0.1614
      6 C         138.3732  144.2454  162.9927 C.3     1  UNL1        0.1143
      7 C         138.1317  144.2956  164.4723 C.3     1  UNL1        0.1604
      8 O         138.0004  142.8862  164.9687 O.3     1  UNL1       -0.3497
      9 C         138.1609  141.9649  163.7959 C.3     1  UNL1        0.1703
     10 H         138.2879  138.7719  162.3400 H       1  UNL1        0.2104
     11 N         138.5633  145.4279  162.0898 N.3     1  UNL1       -0.2908
     12 H         138.2635  146.2499  162.6140 H       1  UNL1        0.1237
     13 C         139.9227  145.7388  161.5372 C.3     1  UNL1        0.0958
     14 C         141.1370  145.0736  162.1145 C.ar    1  UNL1       -0.0032
     15 C         141.6959  145.5405  163.4257 C.ar    1  UNL1        0.0004
     16 C         142.9102  144.8753  164.0030 C.ar    1  UNL1        0.0398
     17 C         143.5655  143.7432  163.2689 C.ar    1  UNL1        0.1724
     18 C         143.0065  143.2763  161.9575 C.ar    1  UNL1        0.1721
     19 C         141.7922  143.9415  161.3803 C.ar    1  UNL1        0.0371
     20 O         143.6618  142.1442  161.2234 O.3     1  UNL1       -0.4684
     21 C         144.8761  141.4790  161.8007 C.3     1  UNL1        0.2526
     22 C         145.4350  141.9459  163.1119 C.3     1  UNL1        0.2526
     23 O         144.7797  143.0781  163.8461 O.3     1  UNL1       -0.4684
     24 C         137.9303  140.2622  164.8337 C.3     1  UNL1        0.0367
     25 C         138.6406  139.1363  165.5249 C.3     1  UNL1        0.0328
     26 C         142.4730  138.4999  163.2537 C.ar    1  UNL1        0.2250
     27 C         143.7919  138.7449  163.9247 C.ar    1  UNL1        0.0593
     28 C         143.8335  139.2019  165.3528 C.ar    1  UNL1        0.0254
     29 C         142.5561  139.4140  166.1099 C.ar    1  UNL1        0.0990
     30 N         142.5976  139.8710  167.5379 N.ar    1  UNL1       -0.2400
     31 C         141.3202  140.0831  168.2950 C.ar    1  UNL1        0.1281
     32 C         140.0012  139.8382  167.6240 C.ar    1  UNL1        0.1566
     33 F         138.7237  140.0503  168.3811 F       1  UNL1       -0.2028
     34 C         139.9596  139.3812  166.1959 C.ar    1  UNL1        0.0261
     35 C         141.2371  139.1691  165.4389 C.ar    1  UNL1        0.1002
     36 N         141.1956  138.7120  164.0108 N.ar    1  UNL1       -0.2104
     37 C         143.6874  138.0289  161.0058 C.3     1  UNL1        0.2542
     38 O         142.4314  138.0429  161.8256 O.3     1  UNL1       -0.4561
@<TRIPOS>BOND
     1    37    38    1
     2    38    26    1
     3    26    27   ar
     4    27    28   ar
     5    28    29   ar
     6    29    30   ar
     7    30    31   ar
     8    31    32   ar
     9    32    33    1
    10    32    34   ar
    11    34    25    1
    12    25    24    1
    13    24     1    1
    14     1     2    1
    15     1     3    1
    16     3     4    1
    17     5     4    1
    18     5     6    1
    19     6    11    1
    20    11    13    1
    21    13    14    1
    22    14    15   ar
    23    15    16   ar
    24    16    17   ar
    25    17    18   ar
    26    18    19   ar
    27    18    20    1
    28    20    21    1
    29    21    22    1
    30    22    23    1
    31     6     7    1
    32     7     8    1
    33     9     8    1
    34    34    35   ar
    35    35    36   ar
    36    36    26   ar
    37    35    29   ar
    38     9     1    1
    39     9     5    1
    40    19    14   ar
    41    23    17    1
    42     2    10    1
    43    11    12    1
@<TRIPOS>MOLECULE
*****
 38 43 0 0 0
SMALL
GASTEIGER

@<TRIPOS>ATOM
      1 C         141.1788  137.8029  163.0377 C.3     1  UNL1        0.1429
      2 O         139.9486  137.1062  162.5365 O.3     1  UNL1       -0.3818
      3 C         141.4330  138.0634  161.5825 C.3     1  UNL1        0.1713
      4 O         142.7133  138.8362  161.4667 O.3     1  UNL1       -0.3497
      5 C         143.2505  139.0534  162.8503 C.3     1  UNL1        0.1614
      6 C         144.3737  139.6652  163.6338 C.3     1  UNL1        0.1143
      7 C         144.1195  139.4048  165.0890 C.3     1  UNL1        0.1604
      8 O         142.8391  138.6319  165.2048 O.3     1  UNL1       -0.3497
      9 C         142.3020  138.4148  163.8212 C.3     1  UNL1        0.1703
     10 H         139.9181  137.1603  161.5685 H       1  UNL1        0.2104
     11 N         145.5455  140.4073  163.0625 N.3     1  UNL1       -0.2908
     12 H         145.5393  140.2379  162.0567 H       1  UNL1        0.1237
     13 C         145.6578  141.8911  163.2511 C.3     1  UNL1        0.0958
     14 C         144.4351  142.7543  163.1524 C.ar    1  UNL1       -0.0032
     15 C         143.7348  143.2082  164.3987 C.ar    1  UNL1        0.0004
     16 C         142.5120  144.0715  164.3000 C.ar    1  UNL1        0.0398
     17 C         141.9896  144.4809  162.9548 C.ar    1  UNL1        0.1724
     18 C         142.6899  144.0269  161.7084 C.ar    1  UNL1        0.1721
     19 C         143.9126  143.1636  161.8071 C.ar    1  UNL1        0.0371
     20 O         142.1674  144.4362  160.3632 O.3     1  UNL1       -0.4684
     21 C         140.9446  145.2995  160.2645 C.3     1  UNL1        0.2526
     22 C         140.2444  145.7534  161.5109 C.3     1  UNL1        0.2526
     23 O         140.7669  145.3441  162.8561 O.3     1  UNL1       -0.4684
     24 C         140.6674  137.3968  164.3880 C.3     1  UNL1        0.0367
     25 C         139.4575  138.0698  164.9654 C.3     1  UNL1        0.0328
     26 C         137.8720  140.6405  161.6296 C.ar    1  UNL1        0.2250
     27 C         137.8443  142.1326  161.7809 C.ar    1  UNL1        0.0593
     28 C         138.3451  142.7678  163.0441 C.ar    1  UNL1        0.0254
     29 C         138.8736  141.9109  164.1560 C.ar    1  UNL1        0.0990
     30 N         139.3743  142.5461  165.4193 N.ar    1  UNL1       -0.2400
     31 C         139.9028  141.6892  166.5312 C.ar    1  UNL1        0.1281
     32 C         139.9306  140.1971  166.3799 C.ar    1  UNL1        0.1566
     33 F         140.4590  139.3402  167.4919 F       1  UNL1       -0.2028
     34 C         139.4298  139.5619  165.1167 C.ar    1  UNL1        0.0261
     35 C         138.9013  140.4188  164.0047 C.ar    1  UNL1        0.1002
     36 N         138.4005  139.7836  162.7415 N.ar    1  UNL1       -0.2104
     37 C         137.9602  140.3992  159.0442 C.3     1  UNL1        0.2542
     38 O         137.3713  140.0053  160.3663 O.3     1  UNL1       -0.4561
@<TRIPOS>BOND
     1    37    38    1
     2    38    26    1
     3    26    27   ar
     4    27    28   ar
     5    28    29   ar
     6    29    30   ar
     7    30    31   ar
     8    31    32   ar
     9    32    33    1
    10    32    34   ar
    11    34    25    1
    12    25    24    1
    13    24     1    1
    14     1     2    1
    15     1     3    1
    16     3     4    1
    17     5     4    1
    18     5     6    1
    19     6    11    1
    20    11    13    1
    21    13    14    1
    22    14    15   ar
    23    15    16   ar
    24    16    17   ar
    25    17    18   ar
    26    18    19   ar
    27    18    20    1
    28    20    21    1
    29    21    22    1
    30    22    23    1
    31     6     7    1
    32     7     8    1
    33     9     8    1
    34    34    35   ar
    35    35    36   ar
    36    36    26   ar
    37    35    29   ar
    38     9     1    1
    39     9     5    1
    40    19    14   ar
    41    23    17    1
    42     2    10    1
    43    11    12    1
@<TRIPOS>MOLECULE
*****
 38 43 0 0 0
SMALL
GASTEIGER

@<TRIPOS>ATOM
      1 C         139.3100  144.4079  163.4157 C.3     1  UNL1        0.1429
      2 O         138.0470  144.8946  162.7691 O.3     1  UNL1       -0.3818
      3 C         139.9817  145.2765  162.3938 C.3     1  UNL1        0.1713
      4 O         141.4641  145.1663  162.5942 O.3     1  UNL1       -0.3497
      5 C         141.7087  144.2296  163.7399 C.3     1  UNL1        0.1614
      6 C         142.7760  143.5826  164.5718 C.3     1  UNL1        0.1143
      7 C         142.1043  142.7139  165.5938 C.3     1  UNL1        0.1604
      8 O         140.6217  142.8242  165.3934 O.3     1  UNL1       -0.3497
      9 C         140.3773  143.7609  164.2476 C.3     1  UNL1        0.1703
     10 H         138.2675  145.5009  162.0447 H       1  UNL1        0.2104
     11 N         144.2553  143.7710  164.4103 N.3     1  UNL1       -0.2908
     12 H         144.5736  144.3078  165.2171 H       1  UNL1        0.1237
     13 C         145.1561  142.5765  164.3021 C.3     1  UNL1        0.0958
     14 C         144.6899  141.3488  163.5774 C.ar    1  UNL1       -0.0032
     15 C         144.5013  140.0625  164.3255 C.ar    1  UNL1        0.0004
     16 C         144.0350  138.8347  163.6008 C.ar    1  UNL1        0.0398
     17 C         143.7574  138.8932  162.1278 C.ar    1  UNL1        0.1724
     18 C         143.9460  140.1796  161.3797 C.ar    1  UNL1        0.1721
     19 C         144.4123  141.4074  162.1044 C.ar    1  UNL1        0.0371
     20 O         143.6684  140.2382  159.9068 O.3     1  UNL1       -0.4684
     21 C         143.2022  139.0104  159.1820 C.3     1  UNL1        0.2526
     22 C         143.0136  137.7241  159.9301 C.3     1  UNL1        0.2526
     23 O         143.2912  137.6655  161.4031 O.3     1  UNL1       -0.4684
     24 C         138.3743  143.6411  164.3024 C.3     1  UNL1        0.0367
     25 C         137.3934  142.6775  163.7028 C.3     1  UNL1        0.0328
     26 C         138.3886  138.9759  166.0601 C.ar    1  UNL1        0.2250
     27 C         138.8803  137.7469  165.3544 C.ar    1  UNL1        0.0593
     28 C         139.0402  137.7519  163.8630 C.ar    1  UNL1        0.0254
     29 C         138.7084  138.9857  163.0772 C.ar    1  UNL1        0.0990
     30 N         138.8683  138.9907  161.5858 N.ar    1  UNL1       -0.2400
     31 C         138.5366  140.2245  160.8000 C.ar    1  UNL1        0.1281
     32 C         138.0449  141.4535  161.5057 C.ar    1  UNL1        0.1566
     33 F         137.7132  142.6874  160.7199 F       1  UNL1       -0.2028
     34 C         137.8850  141.4486  162.9971 C.ar    1  UNL1        0.0261
     35 C         138.2168  140.2147  163.7829 C.ar    1  UNL1        0.1002
     36 N         138.0569  140.2097  165.2743 N.ar    1  UNL1       -0.2104
     37 C         139.1132  139.8322  168.4035 C.3     1  UNL1        0.2542
     38 O         138.2287  138.9709  167.5516 O.3     1  UNL1       -0.4561
@<TRIPOS>BOND
     1    37    38    1
     2    38    26    1
     3    26    27   ar
     4    27    28   ar
     5    28    29   ar
     6    29    30   ar
     7    30    31   ar
     8    31    32   ar
     9    32    33    1
    10    32    34   ar
    11    34    25    1
    12    25    24    1
    13    24     1    1
    14     1     2    1
    15     1     3    1
    16     3     4    1
    17     5     4    1
    18     5     6    1
    19     6    11    1
    20    11    13    1
    21    13    14    1
    22    14    15   ar
    23    15    16   ar
    24    16    17   ar
    25    17    18   ar
    26    18    19   ar
    27    18    20    1
    28    20    21    1
    29    21    22    1
    30    22    23    1
    31     6     7    1
    32     7     8    1
    33     9     8    1
    34    34    35   ar
    35    35    36   ar
    36    36    26   ar
    37    35    29   ar
    38     9     1    1
    39     9     5    1
    40    19    14   ar
    41    23    17    1
    42     2    10    1
    43    11    12    1
@<TRIPOS>MOLECULE
*****
 38 43 0 0 0
SMALL
GASTEIGER

@<TRIPOS>ATOM
      1 C         143.4248  143.3880  161.4242 C.3     1  UNL1        0.1429
      2 O         144.5719  142.6811  160.7650 O.3     1  UNL1       -0.3818
      3 C         142.6666  142.9657  160.2008 C.3     1  UNL1        0.1713
      4 O         141.2596  143.4691  160.3309 O.3     1  UNL1       -0.3497
      5 C         141.1482  144.2024  161.6346 C.3     1  UNL1        0.1614
      6 C         140.2098  144.9666  162.5208 C.3     1  UNL1        0.1143
      7 C         140.9681  145.3889  163.7442 C.3     1  UNL1        0.1604
      8 O         142.3752  144.8855  163.6141 O.3     1  UNL1       -0.3497
      9 C         142.4865  144.1522  162.3104 C.3     1  UNL1        0.1703
     10 H         144.2808  142.3152  159.9152 H       1  UNL1        0.2104
     11 N         138.7665  145.2576  162.2339 N.3     1  UNL1       -0.2908
     12 H         138.6410  145.1595  161.2264 H       1  UNL1        0.1237
     13 C         137.6924  144.4384  162.8859 C.3     1  UNL1        0.0958
     14 C         137.9230  142.9822  163.1618 C.ar    1  UNL1       -0.0032
     15 C         138.0187  142.4928  164.5764 C.ar    1  UNL1        0.0004
     16 C         138.2494  141.0365  164.8522 C.ar    1  UNL1        0.0398
     17 C         138.3844  140.0696  163.7134 C.ar    1  UNL1        0.1724
     18 C         138.2887  140.5591  162.2987 C.ar    1  UNL1        0.1721
     19 C         138.0580  142.0153  162.0228 C.ar    1  UNL1        0.0371
     20 O         138.4237  139.5922  161.1599 O.3     1  UNL1       -0.4684
     21 C         138.6544  138.1359  161.4357 C.3     1  UNL1        0.2526
     22 C         138.7501  137.6465  162.8503 C.3     1  UNL1        0.2526
     23 O         138.6151  138.6134  163.9892 O.3     1  UNL1       -0.4684
     24 C         144.4229  143.6624  162.5098 C.3     1  UNL1        0.0367
     25 C         144.9552  142.5337  163.3421 C.3     1  UNL1        0.0328
     26 C         142.7927  138.5875  163.3132 C.ar    1  UNL1        0.2250
     27 C         142.0424  138.1345  164.5305 C.ar    1  UNL1        0.0593
     28 C         142.0129  138.9970  165.7574 C.ar    1  UNL1        0.0254
     29 C         142.7337  140.3123  165.7671 C.ar    1  UNL1        0.0990
     30 N         142.7042  141.1748  166.9940 N.ar    1  UNL1       -0.2400
     31 C         143.4250  142.4902  167.0036 C.ar    1  UNL1        0.1281
     32 C         144.1754  142.9432  165.7863 C.ar    1  UNL1        0.1566
     33 F         144.8962  144.2586  165.7960 F       1  UNL1       -0.2028
     34 C         144.2049  142.0808  164.5594 C.ar    1  UNL1        0.0261
     35 C         143.4840  140.7653  164.5498 C.ar    1  UNL1        0.1002
     36 N         143.5135  139.9029  163.3229 N.ar    1  UNL1       -0.2104
     37 C         142.4394  138.3010  160.7553 C.3     1  UNL1        0.2542
     38 O         142.8222  137.7251  162.0863 O.3     1  UNL1       -0.4561
@<TRIPOS>BOND
     1    37    38    1
     2    38    26    1
     3    26    27   ar
     4    27    28   ar
     5    28    29   ar
     6    29    30   ar
     7    30    31   ar
     8    31    32   ar
     9    32    33    1
    10    32    34   ar
    11    34    25    1
    12    25    24    1
    13    24     1    1
    14     1     2    1
    15     1     3    1
    16     3     4    1
    17     5     4    1
    18     5     6    1
    19     6    11    1
    20    11    13    1
    21    13    14    1
    22    14    15   ar
    23    15    16   ar
    24    16    17   ar
    25    17    18   ar
    26    18    19   ar
    27    18    20    1
    28    20    21    1
    29    21    22    1
    30    22    23    1
    31     6     7    1
    32     7     8    1
    33     9     8    1
    34    34    35   ar
    35    35    36   ar
    36    36    26   ar
    37    35    29   ar
    38     9     1    1
    39     9     5    1
    40    19    14   ar
    41    23    17    1
    42     2    10    1
    43    11    12    1
@<TRIPOS>MOLECULE
*****
 38 43 0 0 0
SMALL
GASTEIGER

@<TRIPOS>ATOM
      1 C         140.6679  145.1788  161.3512 C.3     1  UNL1        0.1429
      2 O         139.5528  145.6980  160.4927 O.3     1  UNL1       -0.3818
      3 C         141.3446  144.9152  160.0387 C.3     1  UNL1        0.1713
      4 O         142.6877  144.3109  160.3229 O.3     1  UNL1       -0.3497
      5 C         142.8411  144.2009  161.8109 C.3     1  UNL1        0.1614
      6 C         143.7660  143.7594  162.9062 C.3     1  UNL1        0.1143
      7 C         143.0893  144.0230  164.2187 C.3     1  UNL1        0.1604
      8 O         141.7461  144.6274  163.9345 O.3     1  UNL1       -0.3497
      9 C         141.5928  144.7373  162.4465 C.3     1  UNL1        0.1703
     10 H         139.7987  145.6151  159.5581 H       1  UNL1        0.2104
     11 N         145.1284  143.1597  162.7215 N.3     1  UNL1       -0.2908
     12 H         145.6223  143.2727  163.6068 H       1  UNL1        0.1237
     13 C         145.2665  141.7185  162.3295 C.3     1  UNL1        0.0958
     14 C         144.4243  140.6745  163.0009 C.ar    1  UNL1       -0.0032
     15 C         144.8519  140.0993  164.3184 C.ar    1  UNL1        0.0004
     16 C         144.0096  139.0553  164.9899 C.ar    1  UNL1        0.0398
     17 C         142.7396  138.5867  164.3437 C.ar    1  UNL1        0.1724
     18 C         142.3120  139.1620  163.0260 C.ar    1  UNL1        0.1721
     19 C         143.1543  140.2059  162.3546 C.ar    1  UNL1        0.0371
     20 O         141.0421  138.6934  162.3798 O.3     1  UNL1       -0.4684
     21 C         140.1997  137.6494  163.0513 C.3     1  UNL1        0.2526
     22 C         140.6274  137.0741  164.3688 C.3     1  UNL1        0.2526
     23 O         141.8974  137.5427  165.0151 O.3     1  UNL1       -0.4684
     24 C         139.7581  145.5509  162.4841 C.3     1  UNL1        0.0367
     25 C         138.3988  144.9254  162.5910 C.3     1  UNL1        0.0328
     26 C         138.1464  141.9048  159.2651 C.ar    1  UNL1        0.2250
     27 C         138.0156  140.4453  159.5857 C.ar    1  UNL1        0.0593
     28 C         137.9689  139.9927  161.0151 C.ar    1  UNL1        0.0254
     29 C         138.0530  140.9996  162.1237 C.ar    1  UNL1        0.0990
     30 N         138.0063  140.5470  163.5530 N.ar    1  UNL1       -0.2400
     31 C         138.0904  141.5538  164.6617 C.ar    1  UNL1        0.1281
     32 C         138.2213  143.0133  164.3410 C.ar    1  UNL1        0.1566
     33 F         138.3054  144.0202  165.4497 F       1  UNL1       -0.2028
     34 C         138.2680  143.4659  162.9117 C.ar    1  UNL1        0.0261
     35 C         138.1839  142.4590  161.8030 C.ar    1  UNL1        0.1002
     36 N         138.2306  142.9116  160.3737 N.ar    1  UNL1       -0.2104
     37 C         137.5879  141.5060  156.7593 C.3     1  UNL1        0.2542
     38 O         138.1932  142.3574  157.8357 O.3     1  UNL1       -0.4561
@<TRIPOS>BOND
     1    37    38    1
     2    38    26    1
     3    26    27   ar
     4    27    28   ar
     5    28    29   ar
     6    29    30   ar
     7    30    31   ar
     8    31    32   ar
     9    32    33    1
    10    32    34   ar
    11    34    25    1
    12    25    24    1
    13    24     1    1
    14     1     2    1
    15     1     3    1
    16     3     4    1
    17     5     4    1
    18     5     6    1
    19     6    11    1
    20    11    13    1
    21    13    14    1
    22    14    15   ar
    23    15    16   ar
    24    16    17   ar
    25    17    18   ar
    26    18    19   ar
    27    18    20    1
    28    20    21    1
    29    21    22    1
    30    22    23    1
    31     6     7    1
    32     7     8    1
    33     9     8    1
    34    34    35   ar
    35    35    36   ar
    36    36    26   ar
    37    35    29   ar
    38     9     1    1
    39     9     5    1
    40    19    14   ar
    41    23    17    1
    42     2    10    1
    43    11    12    1
@<TRIPOS>MOLECULE
*****
 38 43 0 0 0
SMALL
GASTEIGER

@<TRIPOS>ATOM
      1 C         144.4823  141.8107  163.1810 C.3     1  UNL1        0.1429
      2 O         145.5479  140.8192  162.8188 O.3     1  UNL1       -0.3818
      3 C         144.8905  142.4795  161.9019 C.3     1  UNL1        0.1713
      4 O         144.0384  143.7012  161.7251 O.3     1  UNL1       -0.3497
      5 C         143.1035  143.7875  162.8949 C.3     1  UNL1        0.1614
      6 C         141.9991  144.5959  163.5086 C.3     1  UNL1        0.1143
      7 C         141.5908  143.9272  164.7877 C.3     1  UNL1        0.1604
      8 O         142.4429  142.7054  164.9645 O.3     1  UNL1       -0.3497
      9 C         143.3778  142.6191  163.7947 C.3     1  UNL1        0.1703
     10 H         145.9597  141.0790  161.9799 H       1  UNL1        0.2104
     11 N         141.4068  145.8525  162.9427 N.3     1  UNL1       -0.2908
     12 H         142.0856  146.2247  162.2785 H       1  UNL1        0.1237
     13 C         140.0866  145.8056  162.2323 C.3     1  UNL1        0.0958
     14 C         139.3519  144.5045  162.1000 C.ar    1  UNL1       -0.0032
     15 C         138.3233  144.1170  163.1206 C.ar    1  UNL1        0.0004
     16 C         137.5886  142.8158  162.9883 C.ar    1  UNL1        0.0398
     17 C         137.8826  141.9023  161.8355 C.ar    1  UNL1        0.1724
     18 C         138.9113  142.2899  160.8149 C.ar    1  UNL1        0.1721
     19 C         139.6460  143.5910  160.9471 C.ar    1  UNL1        0.0371
     20 O         139.2053  141.3764  159.6620 O.3     1  UNL1       -0.4684
     21 C         138.4706  140.0753  159.5298 C.3     1  UNL1        0.2526
     22 C         137.4420  139.6877  160.5503 C.3     1  UNL1        0.2526
     23 O         137.1479  140.6013  161.7032 O.3     1  UNL1       -0.4684
     24 C         144.2967  140.9347  164.3843 C.3     1  UNL1        0.0367
     25 C         144.0460  139.4659  164.2113 C.3     1  UNL1        0.0328
     26 C         140.0263  139.5497  166.2323 C.ar    1  UNL1        0.2250
     27 C         138.8070  139.0786  165.4966 C.ar    1  UNL1        0.0593
     28 C         138.9276  138.5795  164.0872 C.ar    1  UNL1        0.0254
     29 C         140.2674  138.5516  163.4135 C.ar    1  UNL1        0.0990
     30 N         140.3880  138.0525  162.0041 N.ar    1  UNL1       -0.2400
     31 C         141.7279  138.0245  161.3305 C.ar    1  UNL1        0.1281
     32 C         142.9473  138.4957  162.0662 C.ar    1  UNL1        0.1566
     33 F         144.2872  138.4678  161.3925 F       1  UNL1       -0.2028
     34 C         142.8267  138.9948  163.4756 C.ar    1  UNL1        0.0261
     35 C         141.4867  139.0227  164.1492 C.ar    1  UNL1        0.1002
     36 N         141.3661  139.5218  165.5586 N.ar    1  UNL1       -0.2104
     37 C         141.0909  139.9971  168.5596 C.3     1  UNL1        0.2542
     38 O         139.9057  140.0488  167.6417 O.3     1  UNL1       -0.4561
@<TRIPOS>BOND
     1    37    38    1
     2    38    26    1
     3    26    27   ar
     4    27    28   ar
     5    28    29   ar
     6    29    30   ar
     7    30    31   ar
     8    31    32   ar
     9    32    33    1
    10    32    34   ar
    11    34    25    1
    12    25    24    1
    13    24     1    1
    14     1     2    1
    15     1     3    1
    16     3     4    1
    17     5     4    1
    18     5     6    1
    19     6    11    1
    20    11    13    1
    21    13    14    1
    22    14    15   ar
    23    15    16   ar
    24    16    17   ar
    25    17    18   ar
    26    18    19   ar
    27    18    20    1
    28    20    21    1
    29    21    22    1
    30    22    23    1
    31     6     7    1
    32     7     8    1
    33     9     8    1
    34    34    35   ar
    35    35    36   ar
    36    36    26   ar
    37    35    29   ar
    38     9     1    1
    39     9     5    1
    40    19    14   ar
    41    23    17    1
    42     2    10    1
    43    11    12    1
