@<TRIPOS>MOLECULE
*****
 36 41 0 0 0
SMALL
GASTEIGER

@<TRIPOS>ATOM
      1 C         143.4299  142.3080  167.7769 C.3     1  UNL1        0.0730
      2 C         140.8396  144.7109  161.2498 C.ar    1  UNL1        0.0532
      3 C         139.4966  144.5667  161.9021 C.ar    1  UNL1        0.0043
      4 C         139.3989  144.0846  163.3192 C.ar    1  UNL1       -0.0044
      5 C         140.6443  143.7466  164.0839 C.ar    1  UNL1       -0.0247
      6 C         141.9872  143.8908  163.4317 C.ar    1  UNL1       -0.0245
      7 C         142.0850  144.3730  162.0147 C.ar    1  UNL1        0.0001
      8 C         143.3427  143.6105  164.0098 C.3     1  UNL1        0.0433
      9 C         143.6898  143.1168  165.3831 C.3     1  UNL1        0.0768
     10 N         142.7673  142.7815  166.5172 N.3     1  UNL1       -0.2720
     11 C         141.2698  142.8570  166.5584 C.3     1  UNL1        0.0768
     12 C         140.3249  143.2865  165.4754 C.3     1  UNL1        0.0433
     13 C         139.5707  146.6666  156.5121 C.3     1  UNL1        0.0742
     14 C         140.3540  146.0920  157.6552 C.ar    1  UNL1        0.1442
     15 C         141.8207  145.7782  157.6493 C.ar    1  UNL1        0.1349
     16 N         142.1813  145.2226  158.9952 N.ar    1  UNL1       -0.2070
     17 C         140.9373  145.1931  159.8328 C.ar    1  UNL1        0.2293
     18 O         139.8079  145.7304  159.0046 O.2     1  UNL1       -0.4389
     19 C         142.6876  142.3582  169.0794 C.3     1  UNL1        0.0294
     20 C         142.8528  141.2530  170.0800 C.3     1  UNL1        0.0666
     21 S         142.2825  139.8946  169.7980 S.3     1  UNL1       -0.0756
     22 C         141.0856  139.7544  168.9048 C.ar    1  UNL1        0.1932
     23 N         139.6514  139.8775  169.3267 N.ar    1  UNL1       -0.1221
     24 N         138.7921  139.6656  168.1156 N.ar    1  UNL1       -0.1286
     25 C         139.6953  139.4116  166.9452 C.ar    1  UNL1        0.1631
     26 N         141.1128  139.4664  167.4330 N.ar    1  UNL1       -0.2887
     27 C         142.3416  139.2682  166.5958 C.3     1  UNL1        0.1340
     28 C         139.2579  139.1488  165.5347 C.2     1  UNL1        0.0182
     29 C         139.3710  137.7682  164.9592 C.2     1  UNL1        0.0006
     30 C         138.9335  137.5054  163.5487 C.2     1  UNL1        0.0186
     31 C         138.3830  138.6232  162.7136 C.2     1  UNL1        0.0777
     32 N         137.8754  138.6661  161.3027 N.2     1  UNL1       -0.2442
     33 C         137.4486  140.0732  161.0062 C.2     1  UNL1        0.0985
     34 C         137.6925  140.8999  162.2339 C.2     1  UNL1        0.0182
     35 C         138.2699  140.0038  163.2890 C.2     1  UNL1        0.0015
     36 C         138.7073  140.2665  164.6996 C.3     1  UNL1        0.0573
@<TRIPOS>BOND
     1    13    14    1
     2    14    15   ar
     3    15    16   ar
     4    16    17   ar
     5    17     2    1
     6     2     3   ar
     7     3     4   ar
     8     4     5   ar
     9     5     6   ar
    10     6     7   ar
    11     6     8    1
    12     8     9    1
    13     9    10    1
    14    10     1    1
    15     1    19    1
    16    19    20    1
    17    20    21    1
    18    21    22    1
    19    22    23   ar
    20    23    24   ar
    21    24    25   ar
    22    25    28    1
    23    28    29    2
    24    29    30    1
    25    30    31    2
    26    31    32    1
    27    32    33    2
    28    33    34    1
    29    34    35    2
    30    35    36    1
    31    25    26   ar
    32    26    27    1
    33    10    11    1
    34    11    12    1
    35    17    18   ar
    36    18    14   ar
    37     7     2   ar
    38    26    22   ar
    39    12     5    1
    40    36    28    1
    41    35    31    1
@<TRIPOS>MOLECULE
*****
 36 41 0 0 0
SMALL
GASTEIGER

@<TRIPOS>ATOM
      1 C         144.8754  142.5687  159.8460 C.3     1  UNL1        0.0730
      2 C         142.8242  139.9340  166.4746 C.ar    1  UNL1        0.0532
      3 C         142.5987  138.6537  165.7262 C.ar    1  UNL1        0.0043
      4 C         142.8667  138.5897  164.2517 C.ar    1  UNL1       -0.0044
      5 C         143.3601  139.8060  163.5256 C.ar    1  UNL1       -0.0247
      6 C         143.5856  141.0862  164.2739 C.ar    1  UNL1       -0.0245
      7 C         143.3177  141.1503  165.7484 C.ar    1  UNL1        0.0001
      8 C         144.0699  142.4046  163.7472 C.3     1  UNL1        0.0433
      9 C         144.4483  142.7683  162.3420 C.3     1  UNL1        0.0768
     10 N         144.4358  141.9034  161.1166 N.3     1  UNL1       -0.2720
     11 C         144.0420  140.4613  160.9935 C.3     1  UNL1        0.0768
     12 C         143.5632  139.5279  162.0656 C.3     1  UNL1        0.0433
     13 C         141.2167  141.6046  171.2186 C.3     1  UNL1        0.0742
     14 C         141.8173  140.7659  170.1296 C.ar    1  UNL1        0.1442
     15 C         142.4703  139.4272  170.3064 C.ar    1  UNL1        0.1349
     16 N         142.9270  138.9525  168.9587 N.ar    1  UNL1       -0.2070
     17 C         142.5563  139.9980  167.9490 C.ar    1  UNL1        0.2293
     18 O         141.8704  141.1187  168.6727 O.2     1  UNL1       -0.4389
     19 C         144.0290  142.4628  158.6121 C.3     1  UNL1        0.0294
     20 C         143.1378  143.6017  158.2138 C.3     1  UNL1        0.0666
     21 S         141.7153  143.6421  158.6878 S.3     1  UNL1       -0.0756
     22 C         141.4136  143.6289  160.1571 C.ar    1  UNL1        0.1932
     23 N         141.5984  144.7762  161.1055 N.ar    1  UNL1       -0.1221
     24 N         141.1732  144.3225  162.4705 N.ar    1  UNL1       -0.1286
     25 C         140.7257  142.8946  162.3657 C.ar    1  UNL1        0.1631
     26 N         140.8742  142.4659  160.9360 N.ar    1  UNL1       -0.2887
     27 C         140.5418  141.1120  160.3823 C.3     1  UNL1        0.1340
     28 C         140.2186  142.0446  163.4928 C.2     1  UNL1        0.0182
     29 C         140.0943  142.6230  164.8713 C.2     1  UNL1        0.0006
     30 C         139.5872  141.7731  165.9984 C.2     1  UNL1        0.0186
     31 C         139.2043  140.3447  165.7472 C.2     1  UNL1        0.0777
     32 N         138.6772  139.2724  166.6540 N.2     1  UNL1       -0.2442
     33 C         138.4757  138.0313  165.8361 C.2     1  UNL1        0.0985
     34 C         138.8783  138.3366  164.4236 C.2     1  UNL1        0.0182
     35 C         139.3285  139.7663  164.3687 C.2     1  UNL1        0.0015
     36 C         139.8357  140.6163  163.2416 C.3     1  UNL1        0.0573
@<TRIPOS>BOND
     1    13    14    1
     2    14    15   ar
     3    15    16   ar
     4    16    17   ar
     5    17     2    1
     6     2     3   ar
     7     3     4   ar
     8     4     5   ar
     9     5     6   ar
    10     6     7   ar
    11     6     8    1
    12     8     9    1
    13     9    10    1
    14    10     1    1
    15     1    19    1
    16    19    20    1
    17    20    21    1
    18    21    22    1
    19    22    23   ar
    20    23    24   ar
    21    24    25   ar
    22    25    28    1
    23    28    29    2
    24    29    30    1
    25    30    31    2
    26    31    32    1
    27    32    33    2
    28    33    34    1
    29    34    35    2
    30    35    36    1
    31    25    26   ar
    32    26    27    1
    33    10    11    1
    34    11    12    1
    35    17    18   ar
    36    18    14   ar
    37     7     2   ar
    38    26    22   ar
    39    12     5    1
    40    36    28    1
    41    35    31    1
@<TRIPOS>MOLECULE
*****
 36 41 0 0 0
SMALL
GASTEIGER

@<TRIPOS>ATOM
      1 C         138.0280  140.8177  158.9190 C.3     1  UNL1        0.0730
      2 C         139.0759  139.8902  166.2079 C.ar    1  UNL1        0.0532
      3 C         138.9936  138.4289  165.8794 C.ar    1  UNL1        0.0043
      4 C         138.7753  137.9899  164.4617 C.ar    1  UNL1       -0.0044
      5 C         138.6394  139.0123  163.3725 C.ar    1  UNL1       -0.0247
      6 C         138.7217  140.4735  163.7010 C.ar    1  UNL1       -0.0245
      7 C         138.9399  140.9125  165.1186 C.ar    1  UNL1        0.0001
      8 C         138.6131  141.6480  162.7743 C.3     1  UNL1        0.0433
      9 C         138.3954  141.6512  161.2901 C.3     1  UNL1        0.0768
     10 N         138.2325  140.4808  160.3663 N.3     1  UNL1       -0.2720
     11 C         138.2471  139.0181  160.6983 C.3     1  UNL1        0.0768
     12 C         138.4282  138.3645  162.0362 C.3     1  UNL1        0.0433
     13 C         140.5554  142.7079  170.4212 C.3     1  UNL1        0.0742
     14 C         139.9742  141.6242  169.5621 C.ar    1  UNL1        0.1442
     15 C         139.2859  140.3848  170.0519 C.ar    1  UNL1        0.1349
     16 N         138.8656  139.5842  168.8550 N.ar    1  UNL1       -0.2070
     17 C         139.2941  140.3290  167.6255 C.ar    1  UNL1        0.2293
     18 O         139.9793  141.5898  168.0626 O.2     1  UNL1       -0.4389
     19 C         138.9198  140.2135  157.8750 C.3     1  UNL1        0.0294
     20 C         140.1631  140.9329  157.4429 C.3     1  UNL1        0.0666
     21 S         141.5094  140.4224  157.8634 S.3     1  UNL1       -0.0756
     22 C         141.6734  139.7453  159.1918 C.ar    1  UNL1        0.1932
     23 N         141.6125  138.2675  159.4416 N.ar    1  UNL1       -0.1221
     24 N         141.8285  138.0359  160.9078 N.ar    1  UNL1       -0.1286
     25 C         142.0229  139.3706  161.5641 C.ar    1  UNL1        0.1631
     26 N         141.9270  140.4271  160.5036 N.ar    1  UNL1       -0.2887
     27 C         142.0612  141.9057  160.7173 C.3     1  UNL1        0.1340
     28 C         142.2698  139.6074  163.0246 C.2     1  UNL1        0.0182
     29 C         142.3753  138.4440  163.9656 C.2     1  UNL1        0.0006
     30 C         142.6222  138.6808  165.4261 C.2     1  UNL1        0.0186
     31 C         142.7636  140.0808  165.9456 C.2     1  UNL1        0.0777
     32 N         143.0094  140.6200  167.3236 N.2     1  UNL1       -0.2442
     33 C         143.0558  142.1167  167.2342 C.2     1  UNL1        0.0985
     34 C         142.8387  142.5023  165.8009 C.2     1  UNL1        0.0182
     35 C         142.6581  141.2441  165.0046 C.2     1  UNL1        0.0015
     36 C         142.4112  141.0074  163.5441 C.3     1  UNL1        0.0573
@<TRIPOS>BOND
     1    13    14    1
     2    14    15   ar
     3    15    16   ar
     4    16    17   ar
     5    17     2    1
     6     2     3   ar
     7     3     4   ar
     8     4     5   ar
     9     5     6   ar
    10     6     7   ar
    11     6     8    1
    12     8     9    1
    13     9    10    1
    14    10     1    1
    15     1    19    1
    16    19    20    1
    17    20    21    1
    18    21    22    1
    19    22    23   ar
    20    23    24   ar
    21    24    25   ar
    22    25    28    1
    23    28    29    2
    24    29    30    1
    25    30    31    2
    26    31    32    1
    27    32    33    2
    28    33    34    1
    29    34    35    2
    30    35    36    1
    31    25    26   ar
    32    26    27    1
    33    10    11    1
    34    11    12    1
    35    17    18   ar
    36    18    14   ar
    37     7     2   ar
    38    26    22   ar
    39    12     5    1
    40    36    28    1
    41    35    31    1
@<TRIPOS>MOLECULE
*****
 36 41 0 0 0
SMALL
GASTEIGER

@<TRIPOS>ATOM
      1 C         138.3198  142.0998  158.8532 C.3     1  UNL1        0.0730
      2 C         139.2821  140.3161  165.9931 C.ar    1  UNL1        0.0532
      3 C         139.1586  138.9050  165.4997 C.ar    1  UNL1        0.0043
      4 C         138.9384  138.6373  164.0402 C.ar    1  UNL1       -0.0044
      5 C         138.8417  139.7808  163.0743 C.ar    1  UNL1       -0.0247
      6 C         138.9652  141.1918  163.5677 C.ar    1  UNL1       -0.0245
      7 C         139.1854  141.4596  165.0271 C.ar    1  UNL1        0.0001
      8 C         138.8992  142.4671  162.7806 C.3     1  UNL1        0.0433
      9 C         138.6934  142.6460  161.3055 C.3     1  UNL1        0.0768
     10 N         138.5027  141.5941  160.2535 N.3     1  UNL1       -0.2720
     11 C         138.4708  140.1033  160.4164 C.3     1  UNL1        0.0768
     12 C         138.6217  139.2963  161.6718 C.3     1  UNL1        0.0433
     13 C         140.6861  142.6558  170.5137 C.3     1  UNL1        0.0742
     14 C         140.1476  141.6591  169.5303 C.ar    1  UNL1        0.1442
     15 C         139.5347  140.3320  169.8663 C.ar    1  UNL1        0.1349
     16 N         139.1359  139.6672  168.5821 N.ar    1  UNL1       -0.2070
     17 C         139.5023  140.5837  167.4525 C.ar    1  UNL1        0.2293
     18 O         140.1276  141.8148  168.0386 O.2     1  UNL1       -0.4389
     19 C         139.2491  143.1417  158.3045 C.3     1  UNL1        0.0294
     20 C         140.4088  142.7345  157.4448 C.3     1  UNL1        0.0666
     21 S         141.8104  142.8759  157.9600 S.3     1  UNL1       -0.0756
     22 C         142.0499  143.1703  159.4112 C.ar    1  UNL1        0.1932
     23 N         142.2407  144.5300  160.0152 N.ar    1  UNL1       -0.1221
     24 N         142.4494  144.3568  161.4905 N.ar    1  UNL1       -0.1286
     25 C         142.3875  142.8900  161.7982 C.ar    1  UNL1        0.1631
     26 N         142.1406  142.1567  160.5131 N.ar    1  UNL1       -0.2887
     27 C         142.0078  140.6707  160.3574 C.3     1  UNL1        0.1340
     28 C         142.5449  142.2660  163.1531 C.2     1  UNL1        0.0182
     29 C         142.6346  143.1343  164.3729 C.2     1  UNL1        0.0006
     30 C         142.7920  142.5104  165.7279 C.2     1  UNL1        0.0186
     31 C         142.8598  141.0180  165.8631 C.2     1  UNL1        0.0777
     32 N         143.0111  140.1243  167.0582 N.2     1  UNL1       -0.2442
     33 C         143.0149  138.7036  166.5771 C.2     1  UNL1        0.0985
     34 C         142.8659  138.7193  165.0845 C.2     1  UNL1        0.0182
     35 C         142.7700  140.1497  164.6433 C.2     1  UNL1        0.0015
     36 C         142.6126  140.7737  163.2884 C.3     1  UNL1        0.0573
@<TRIPOS>BOND
     1    13    14    1
     2    14    15   ar
     3    15    16   ar
     4    16    17   ar
     5    17     2    1
     6     2     3   ar
     7     3     4   ar
     8     4     5   ar
     9     5     6   ar
    10     6     7   ar
    11     6     8    1
    12     8     9    1
    13     9    10    1
    14    10     1    1
    15     1    19    1
    16    19    20    1
    17    20    21    1
    18    21    22    1
    19    22    23   ar
    20    23    24   ar
    21    24    25   ar
    22    25    28    1
    23    28    29    2
    24    29    30    1
    25    30    31    2
    26    31    32    1
    27    32    33    2
    28    33    34    1
    29    34    35    2
    30    35    36    1
    31    25    26   ar
    32    26    27    1
    33    10    11    1
    34    11    12    1
    35    17    18   ar
    36    18    14   ar
    37     7     2   ar
    38    26    22   ar
    39    12     5    1
    40    36    28    1
    41    35    31    1
@<TRIPOS>MOLECULE
*****
 36 41 0 0 0
SMALL
GASTEIGER

@<TRIPOS>ATOM
      1 C         140.4767  143.3693  169.2390 C.3     1  UNL1        0.0730
      2 C         143.0761  141.8740  162.4498 C.ar    1  UNL1        0.0532
      3 C         144.3854  141.6883  163.1577 C.ar    1  UNL1        0.0043
      4 C         144.4676  141.8749  164.6438 C.ar    1  UNL1       -0.0044
      5 C         143.2404  142.2471  165.4220 C.ar    1  UNL1       -0.0247
      6 C         141.9312  142.4328  164.7141 C.ar    1  UNL1       -0.0245
      7 C         141.8489  142.2462  163.2280 C.ar    1  UNL1        0.0001
      8 C         140.5979  142.8008  165.2948 C.3     1  UNL1        0.0433
      9 C         140.2448  143.0740  166.7269 C.3     1  UNL1        0.0768
     10 N         141.1377  143.0467  167.9318 N.3     1  UNL1       -0.2720
     11 C         142.6042  142.7394  168.0024 C.3     1  UNL1        0.0768
     12 C         143.5400  142.3836  166.8854 C.3     1  UNL1        0.0433
     13 C         144.3514  140.7404  157.4529 C.3     1  UNL1        0.0742
     14 C         143.5801  141.1664  158.6670 C.ar    1  UNL1        0.1442
     15 C         142.1551  141.6342  158.6869 C.ar    1  UNL1        0.1349
     16 N         141.7928  141.9562  160.1065 N.ar    1  UNL1       -0.2070
     17 C         142.9939  141.6874  160.9638 C.ar    1  UNL1        0.2293
     18 O         144.0986  141.1992  160.0741 O.2     1  UNL1       -0.4389
     19 C         139.7983  142.2859  170.0240 C.3     1  UNL1        0.0294
     20 C         140.6070  141.3756  170.9000 C.3     1  UNL1        0.0666
     21 S         140.7966  139.9383  170.5155 S.3     1  UNL1       -0.0756
     22 C         141.4793  139.5906  169.2259 C.ar    1  UNL1        0.1932
     23 N         142.9331  139.2609  169.0589 N.ar    1  UNL1       -0.1221
     24 N         143.1804  138.9782  167.6067 N.ar    1  UNL1       -0.1286
     25 C         141.8795  139.1332  166.8762 C.ar    1  UNL1        0.1631
     26 N         140.8281  139.5117  167.8769 N.ar    1  UNL1       -0.2887
     27 C         139.3799  139.7666  167.5807 C.3     1  UNL1        0.1340
     28 C         141.6672  138.9431  165.4035 C.2     1  UNL1        0.0182
     29 C         140.3013  139.1297  164.8124 C.2     1  UNL1        0.0006
     30 C         140.0889  138.9396  163.3398 C.2     1  UNL1        0.0186
     31 C         141.2425  138.5628  162.4581 C.2     1  UNL1        0.0777
     32 N         141.3372  138.3092  160.9828 N.2     1  UNL1       -0.2442
     33 C         142.7617  137.9658  160.6620 C.2     1  UNL1        0.0985
     34 C         143.5473  138.0071  161.9392 C.2     1  UNL1        0.0182
     35 C         142.6084  138.3761  163.0492 C.2     1  UNL1        0.0015
     36 C         142.8207  138.5663  164.5219 C.3     1  UNL1        0.0573
@<TRIPOS>BOND
     1    13    14    1
     2    14    15   ar
     3    15    16   ar
     4    16    17   ar
     5    17     2    1
     6     2     3   ar
     7     3     4   ar
     8     4     5   ar
     9     5     6   ar
    10     6     7   ar
    11     6     8    1
    12     8     9    1
    13     9    10    1
    14    10     1    1
    15     1    19    1
    16    19    20    1
    17    20    21    1
    18    21    22    1
    19    22    23   ar
    20    23    24   ar
    21    24    25   ar
    22    25    28    1
    23    28    29    2
    24    29    30    1
    25    30    31    2
    26    31    32    1
    27    32    33    2
    28    33    34    1
    29    34    35    2
    30    35    36    1
    31    25    26   ar
    32    26    27    1
    33    10    11    1
    34    11    12    1
    35    17    18   ar
    36    18    14   ar
    37     7     2   ar
    38    26    22   ar
    39    12     5    1
    40    36    28    1
    41    35    31    1
@<TRIPOS>MOLECULE
*****
 36 41 0 0 0
SMALL
GASTEIGER

@<TRIPOS>ATOM
      1 C         141.6419  145.3783  158.9123 C.3     1  UNL1        0.0730
      2 C         140.5965  142.9568  165.8499 C.ar    1  UNL1        0.0532
      3 C         139.4659  143.9425  165.8614 C.ar    1  UNL1        0.0043
      4 C         139.1839  144.7746  164.6456 C.ar    1  UNL1       -0.0044
      5 C         140.0326  144.6210  163.4183 C.ar    1  UNL1       -0.0247
      6 C         141.1632  143.6355  163.4069 C.ar    1  UNL1       -0.0245
      7 C         141.4452  142.8033  164.6226 C.ar    1  UNL1        0.0001
      8 C         142.1241  143.3272  162.2969 C.3     1  UNL1        0.0433
      9 C         142.1914  143.9285  160.9243 C.3     1  UNL1        0.0768
     10 N         141.3147  144.9865  160.3228 N.3     1  UNL1       -0.2720
     11 C         140.1541  145.7045  160.9451 C.3     1  UNL1        0.0768
     12 C         139.5835  145.5419  162.3227 C.3     1  UNL1        0.0433
     13 C         142.9955  140.8930  170.0768 C.3     1  UNL1        0.0742
     14 C         141.9811  141.1761  169.0085 C.ar    1  UNL1        0.1442
     15 C         140.6436  140.5126  168.8647 C.ar    1  UNL1        0.1349
     16 N         139.9621  141.0989  167.6638 N.ar    1  UNL1       -0.2070
     17 C         140.8784  142.1248  167.0657 C.ar    1  UNL1        0.2293
     18 O         142.1263  142.1725  167.8967 O.2     1  UNL1       -0.4389
     19 C         142.3542  144.4130  158.0117 C.3     1  UNL1        0.0294
     20 C         141.6087  143.7326  156.9020 C.3     1  UNL1        0.0666
     21 S         140.8197  142.4879  157.1814 S.3     1  UNL1       -0.0756
     22 C         139.9282  142.4196  158.3857 C.ar    1  UNL1        0.1932
     23 N         138.7041  143.2529  158.6250 N.ar    1  UNL1       -0.1221
     24 N         138.1236  142.8543  159.9494 N.ar    1  UNL1       -0.1286
     25 C         138.9888  141.7746  160.5287 C.ar    1  UNL1        0.1631
     26 N         140.1042  141.5059  159.5623 N.ar    1  UNL1       -0.2887
     27 C         141.2026  140.5001  159.7411 C.3     1  UNL1        0.1340
     28 C         138.7762  141.0846  161.8435 C.2     1  UNL1        0.0182
     29 C         137.9977  141.7651  162.9303 C.2     1  UNL1        0.0006
     30 C         137.7851  141.0751  164.2451 C.2     1  UNL1        0.0186
     31 C         138.3507  139.7048  164.4732 C.2     1  UNL1        0.0777
     32 N         138.3041  138.7838  165.6562 N.2     1  UNL1       -0.2442
     33 C         139.0536  137.5341  165.3006 C.2     1  UNL1        0.0985
     34 C         139.5636  137.6828  163.8977 C.2     1  UNL1        0.0182
     35 C         139.1292  139.0244  163.3864 C.2     1  UNL1        0.0015
     36 C         139.3419  139.7143  162.0716 C.3     1  UNL1        0.0573
@<TRIPOS>BOND
     1    13    14    1
     2    14    15   ar
     3    15    16   ar
     4    16    17   ar
     5    17     2    1
     6     2     3   ar
     7     3     4   ar
     8     4     5   ar
     9     5     6   ar
    10     6     7   ar
    11     6     8    1
    12     8     9    1
    13     9    10    1
    14    10     1    1
    15     1    19    1
    16    19    20    1
    17    20    21    1
    18    21    22    1
    19    22    23   ar
    20    23    24   ar
    21    24    25   ar
    22    25    28    1
    23    28    29    2
    24    29    30    1
    25    30    31    2
    26    31    32    1
    27    32    33    2
    28    33    34    1
    29    34    35    2
    30    35    36    1
    31    25    26   ar
    32    26    27    1
    33    10    11    1
    34    11    12    1
    35    17    18   ar
    36    18    14   ar
    37     7     2   ar
    38    26    22   ar
    39    12     5    1
    40    36    28    1
    41    35    31    1
@<TRIPOS>MOLECULE
*****
 36 41 0 0 0
SMALL
GASTEIGER

@<TRIPOS>ATOM
      1 C         143.2313  141.8187  169.9472 C.3     1  UNL1        0.0730
      2 C         143.2767  139.9551  162.7631 C.ar    1  UNL1        0.0532
      3 C         142.9507  138.5828  163.2736 C.ar    1  UNL1        0.0043
      4 C         142.8084  138.3452  164.7479 C.ar    1  UNL1       -0.0044
      5 C         142.9921  139.4800  165.7116 C.ar    1  UNL1       -0.0247
      6 C         143.3181  140.8522  165.2011 C.ar    1  UNL1       -0.0245
      7 C         143.4604  141.0898  163.7269 C.ar    1  UNL1        0.0001
      8 C         143.5400  142.1128  165.9832 C.3     1  UNL1        0.0433
      9 C         143.4908  142.3123  167.4691 C.3     1  UNL1        0.0768
     10 N         143.2074  141.3007  168.5397 N.3     1  UNL1       -0.2720
     11 C         142.9034  139.8396  168.3890 C.3     1  UNL1        0.0768
     12 C         142.8075  139.0293  167.1303 C.3     1  UNL1        0.0433
     13 C         144.3344  142.2460  158.1248 C.3     1  UNL1        0.0742
     14 C         143.9052  141.2456  159.1570 C.ar    1  UNL1        0.1442
     15 C         143.3709  139.8709  158.8838 C.ar    1  UNL1        0.1349
     16 N         143.0705  139.2201  160.2015 N.ar    1  UNL1       -0.2070
     17 C         143.4190  140.1926  161.2889 C.ar    1  UNL1        0.2293
     18 O         143.9349  141.4445  160.6434 O.2     1  UNL1       -0.4389
     19 C         142.5779  143.1284  170.2758 C.3     1  UNL1        0.0294
     20 C         141.0900  143.2010  170.4518 C.3     1  UNL1        0.0666
     21 S         140.1925  143.2162  169.2501 S.3     1  UNL1       -0.0756
     22 C         139.8791  141.9371  168.5318 C.ar    1  UNL1        0.1932
     23 N         139.5026  140.6349  169.1739 N.ar    1  UNL1       -0.1221
     24 N         139.2779  139.6287  168.0844 N.ar    1  UNL1       -0.1286
     25 C         139.5155  140.3092  166.7689 C.ar    1  UNL1        0.1631
     26 N         139.8870  141.7359  167.0454 N.ar    1  UNL1       -0.2887
     27 C         140.2099  142.7783  166.0162 C.3     1  UNL1        0.1340
     28 C         139.4016  139.6744  165.4146 C.2     1  UNL1        0.0182
     29 C         139.0645  138.2176  165.2951 C.2     1  UNL1        0.0006
     30 C         138.9506  137.5829  163.9408 C.2     1  UNL1        0.0186
     31 C         139.1737  138.4048  162.7060 C.2     1  UNL1        0.0777
     32 N         139.1295  138.0574  161.2475 N.2     1  UNL1       -0.2442
     33 C         139.4391  139.2995  160.4656 C.2     1  UNL1        0.0985
     34 C         139.6747  140.4145  161.4410 C.2     1  UNL1        0.0182
     35 C         139.5107  139.8615  162.8256 C.2     1  UNL1        0.0015
     36 C         139.6246  140.4963  164.1799 C.3     1  UNL1        0.0573
@<TRIPOS>BOND
     1    13    14    1
     2    14    15   ar
     3    15    16   ar
     4    16    17   ar
     5    17     2    1
     6     2     3   ar
     7     3     4   ar
     8     4     5   ar
     9     5     6   ar
    10     6     7   ar
    11     6     8    1
    12     8     9    1
    13     9    10    1
    14    10     1    1
    15     1    19    1
    16    19    20    1
    17    20    21    1
    18    21    22    1
    19    22    23   ar
    20    23    24   ar
    21    24    25   ar
    22    25    28    1
    23    28    29    2
    24    29    30    1
    25    30    31    2
    26    31    32    1
    27    32    33    2
    28    33    34    1
    29    34    35    2
    30    35    36    1
    31    25    26   ar
    32    26    27    1
    33    10    11    1
    34    11    12    1
    35    17    18   ar
    36    18    14   ar
    37     7     2   ar
    38    26    22   ar
    39    12     5    1
    40    36    28    1
    41    35    31    1
@<TRIPOS>MOLECULE
*****
 36 41 0 0 0
SMALL
GASTEIGER

@<TRIPOS>ATOM
      1 C         144.8514  142.8327  160.4038 C.3     1  UNL1        0.0730
      2 C         141.5816  140.6979  166.7155 C.ar    1  UNL1        0.0532
      3 C         142.0544  139.3304  166.3197 C.ar    1  UNL1        0.0043
      4 C         142.8245  139.1426  165.0462 C.ar    1  UNL1       -0.0044
      5 C         143.1217  140.3222  164.1685 C.ar    1  UNL1       -0.0247
      6 C         142.6490  141.6895  164.5644 C.ar    1  UNL1       -0.0245
      7 C         141.8789  141.8774  165.8378 C.ar    1  UNL1        0.0001
      8 C         142.8360  142.9898  163.8402 C.3     1  UNL1        0.0433
      9 C         143.5420  143.2437  162.5412 C.3     1  UNL1        0.0768
     10 N         144.2352  142.2601  161.6458 N.3     1  UNL1       -0.2720
     11 C         144.3938  140.7797  161.8280 C.3     1  UNL1        0.0768
     12 C         143.8983  139.9172  162.9507 C.3     1  UNL1        0.0433
     13 C         139.4691  142.8899  171.0298 C.3     1  UNL1        0.0742
     14 C         139.8406  141.8933  169.9720 C.ar    1  UNL1        0.1442
     15 C         139.4128  140.4563  169.9254 C.ar    1  UNL1        0.1349
     16 N         140.0129  139.8336  168.6997 N.ar    1  UNL1       -0.2070
     17 C         140.8116  140.8857  167.9890 C.ar    1  UNL1        0.2293
     18 O         140.7051  142.1586  168.7753 O.2     1  UNL1       -0.4389
     19 C         144.4793  142.2816  159.0592 C.3     1  UNL1        0.0294
     20 C         143.4643  142.9909  158.2127 C.3     1  UNL1        0.0666
     21 S         142.0207  142.5888  158.2776 S.3     1  UNL1       -0.0756
     22 C         141.5762  141.5458  159.2598 C.ar    1  UNL1        0.1932
     23 N         141.8339  140.0717  159.1576 N.ar    1  UNL1       -0.1221
     24 N         141.2129  139.4086  160.3512 N.ar    1  UNL1       -0.1286
     25 C         140.5714  140.4730  161.1911 C.ar    1  UNL1        0.1631
     26 N         140.7959  141.7939  160.5166 N.ar    1  UNL1       -0.2887
     27 C         140.3231  143.1285  161.0120 C.3     1  UNL1        0.1340
     28 C         139.8347  140.2549  162.4794 C.2     1  UNL1        0.0182
     29 C         139.1536  141.4062  163.1581 C.2     1  UNL1        0.0006
     30 C         138.4169  141.1881  164.4464 C.2     1  UNL1        0.0186
     31 C         138.3612  139.8187  165.0560 C.2     1  UNL1        0.0777
     32 N         137.7157  139.3027  166.3078 N.2     1  UNL1       -0.2442
     33 C         137.9978  137.8325  166.4028 C.2     1  UNL1        0.0985
     34 C         138.8177  137.4399  165.2096 C.2     1  UNL1        0.0182
     35 C         139.0423  138.6674  164.3773 C.2     1  UNL1        0.0015
     36 C         139.7790  138.8855  163.0890 C.3     1  UNL1        0.0573
@<TRIPOS>BOND
     1    13    14    1
     2    14    15   ar
     3    15    16   ar
     4    16    17   ar
     5    17     2    1
     6     2     3   ar
     7     3     4   ar
     8     4     5   ar
     9     5     6   ar
    10     6     7   ar
    11     6     8    1
    12     8     9    1
    13     9    10    1
    14    10     1    1
    15     1    19    1
    16    19    20    1
    17    20    21    1
    18    21    22    1
    19    22    23   ar
    20    23    24   ar
    21    24    25   ar
    22    25    28    1
    23    28    29    2
    24    29    30    1
    25    30    31    2
    26    31    32    1
    27    32    33    2
    28    33    34    1
    29    34    35    2
    30    35    36    1
    31    25    26   ar
    32    26    27    1
    33    10    11    1
    34    11    12    1
    35    17    18   ar
    36    18    14   ar
    37     7     2   ar
    38    26    22   ar
    39    12     5    1
    40    36    28    1
    41    35    31    1
@<TRIPOS>MOLECULE
*****
 36 41 0 0 0
SMALL
GASTEIGER

@<TRIPOS>ATOM
      1 C         139.3311  138.3423  159.7071 C.3     1  UNL1        0.0730
      2 C         140.9697  142.2006  165.8320 C.ar    1  UNL1        0.0532
      3 C         140.4303  143.3668  165.0580 C.ar    1  UNL1        0.0043
      4 C         139.9198  143.1685  163.6615 C.ar    1  UNL1       -0.0044
      5 C         139.9487  141.8040  163.0391 C.ar    1  UNL1       -0.0247
      6 C         140.4880  140.6379  163.8131 C.ar    1  UNL1       -0.0245
      7 C         140.9985  140.8361  165.2096 C.ar    1  UNL1        0.0001
      8 C         140.6069  139.2053  163.3844 C.3     1  UNL1        0.0433
      9 C         140.2157  138.5852  162.0757 C.3     1  UNL1        0.0768
     10 N         139.6092  139.2445  160.8727 N.3     1  UNL1       -0.2720
     11 C         139.2439  140.6867  160.6811 C.3     1  UNL1        0.0768
     12 C         139.3950  141.8258  161.6452 C.3     1  UNL1        0.0433
     13 C         144.1727  142.4199  170.0241 C.3     1  UNL1        0.0742
     14 C         142.9524  142.4997  169.1553 C.ar    1  UNL1        0.1442
     15 C         141.5792  142.9084  169.5994 C.ar    1  UNL1        0.1349
     16 N         140.6692  142.8461  168.4085 N.ar    1  UNL1       -0.2070
     17 C         141.4801  142.3989  167.2285 C.ar    1  UNL1        0.2293
     18 O         142.8912  142.1848  167.6901 O.2     1  UNL1       -0.4389
     19 C         139.7480  138.7516  158.3255 C.3     1  UNL1        0.0294
     20 C         140.7617  137.9387  157.5762 C.3     1  UNL1        0.0666
     21 S         142.2250  138.2158  157.7539 S.3     1  UNL1       -0.0756
     22 C         142.7802  138.4643  159.1250 C.ar    1  UNL1        0.1932
     23 N         143.3423  137.4260  160.0502 N.ar    1  UNL1       -0.1221
     24 N         143.7803  138.1147  161.3087 N.ar    1  UNL1       -0.1286
     25 C         143.4888  139.5788  161.1613 C.ar    1  UNL1        0.1631
     26 N         142.8707  139.7948  159.8117 N.ar    1  UNL1       -0.2887
     27 C         142.4220  141.1104  159.2479 C.3     1  UNL1        0.1340
     28 C         143.7666  140.6403  162.1840 C.2     1  UNL1        0.0182
     29 C         144.4635  140.2848  163.4638 C.2     1  UNL1        0.0006
     30 C         144.7413  141.3464  164.4865 C.2     1  UNL1        0.0186
     31 C         144.3223  142.7635  164.2294 C.2     1  UNL1        0.0777
     32 N         144.4600  144.0147  165.0451 N.2     1  UNL1       -0.2442
     33 C         143.8483  145.1435  164.2695 C.2     1  UNL1        0.0985
     34 C         143.3325  144.5899  162.9743 C.2     1  UNL1        0.0182
     35 C         143.6254  143.1190  162.9495 C.2     1  UNL1        0.0015
     36 C         143.3476  142.0574  161.9269 C.3     1  UNL1        0.0573
@<TRIPOS>BOND
     1    13    14    1
     2    14    15   ar
     3    15    16   ar
     4    16    17   ar
     5    17     2    1
     6     2     3   ar
     7     3     4   ar
     8     4     5   ar
     9     5     6   ar
    10     6     7   ar
    11     6     8    1
    12     8     9    1
    13     9    10    1
    14    10     1    1
    15     1    19    1
    16    19    20    1
    17    20    21    1
    18    21    22    1
    19    22    23   ar
    20    23    24   ar
    21    24    25   ar
    22    25    28    1
    23    28    29    2
    24    29    30    1
    25    30    31    2
    26    31    32    1
    27    32    33    2
    28    33    34    1
    29    34    35    2
    30    35    36    1
    31    25    26   ar
    32    26    27    1
    33    10    11    1
    34    11    12    1
    35    17    18   ar
    36    18    14   ar
    37     7     2   ar
    38    26    22   ar
    39    12     5    1
    40    36    28    1
    41    35    31    1
