@<TRIPOS>MOLECULE
*****
 28 29 0 0 0
SMALL
GASTEIGER

@<TRIPOS>ATOM
      1 C         143.3046  143.2757  164.0406 C.ar    1  UNL1        0.0628
      2 C         142.6637  142.4600  165.1240 C.ar    1  UNL1        0.0339
      3 C         141.1842  142.5497  165.3547 C.ar    1  UNL1        0.0848
      4 N         140.3457  143.4550  164.5020 N.ar    1  UNL1       -0.2178
      5 C         140.9866  144.2708  163.4186 C.ar    1  UNL1        0.2327
      6 N         142.4660  144.1811  163.1879 N.ar    1  UNL1       -0.2222
      7 C         140.5433  141.7339  166.4382 C.ar    1  UNL1        0.0177
      8 C         140.7053  142.1351  167.8744 C.ar    1  UNL1        0.0015
      9 C         140.0645  141.3194  168.9579 C.ar    1  UNL1       -0.0000
     10 C         139.2616  140.1024  168.6051 C.ar    1  UNL1        0.0039
     11 C         139.0997  139.7011  167.1689 C.ar    1  UNL1        0.0715
     12 C         139.7406  140.5169  166.0854 C.ar    1  UNL1        0.0053
     13 C         138.2969  138.4842  166.8161 C.3     1  UNL1        0.4186
     14 F         137.4941  137.2672  166.4633 F       1  UNL1       -0.1659
     15 F         139.2607  138.1688  165.7108 F       1  UNL1       -0.1659
     16 F         137.3332  138.7995  167.9214 F       1  UNL1       -0.1659
     17 C         140.1480  145.1762  162.5659 C.1     1  UNL1        0.1399
     18 N         139.3095  146.0816  161.7132 N.1     1  UNL1       -0.1876
     19 C         144.7840  143.1860  163.8098 C.3     1  UNL1        0.0474
     20 C         145.5008  141.8878  164.0347 C.3     1  UNL1        0.0234
     21 C         145.0800  140.6589  163.2845 C.3     1  UNL1        0.0689
     22 N         144.9082  139.3583  164.0117 N.3     1  UNL1       -0.2985
     23 H         145.2889  138.6303  163.4071 H       1  UNL1        0.1232
     24 C         143.5394  138.9055  164.4255 C.3     1  UNL1        0.0540
     25 C         141.4557  137.9124  163.2330 C.3     1  UNL1        0.0014
     26 C         142.3807  139.0658  163.4866 C.3     1  UNL1        0.0157
     27 C         143.3293  138.2924  165.7784 C.3     1  UNL1        0.0157
     28 C         143.1199  139.1714  166.9757 C.3     1  UNL1        0.0014
@<TRIPOS>BOND
     1    25    26    1
     2    26    24    1
     3    24    27    1
     4    27    28    1
     5    24    22    1
     6    22    21    1
     7    21    20    1
     8    20    19    1
     9    19     1    1
    10     1     2   ar
    11     2     3   ar
    12     3     7    1
    13     7     8   ar
    14     8     9   ar
    15     9    10   ar
    16    10    11   ar
    17    11    13    1
    18    13    14    1
    19    13    15    1
    20    13    16    1
    21    11    12   ar
    22     3     4   ar
    23     4     5   ar
    24     5    17    1
    25    17    18    3
    26     5     6   ar
    27     6     1   ar
    28    12     7   ar
    29    22    23    1
@<TRIPOS>MOLECULE
*****
 28 29 0 0 0
SMALL
GASTEIGER

@<TRIPOS>ATOM
      1 C         139.0563  139.5343  166.8631 C.ar    1  UNL1        0.0628
      2 C         139.4149  140.6307  165.9045 C.ar    1  UNL1        0.0339
      3 C         140.0657  141.8846  166.4087 C.ar    1  UNL1        0.0848
      4 N         140.3579  142.0421  167.8715 N.ar    1  UNL1       -0.2178
      5 C         139.9992  140.9456  168.8301 C.ar    1  UNL1        0.2327
      6 N         139.3484  139.6917  168.3259 N.ar    1  UNL1       -0.2222
      7 C         140.4244  142.9812  165.4500 C.ar    1  UNL1        0.0177
      8 C         139.4292  144.0589  165.1368 C.ar    1  UNL1        0.0015
      9 C         139.7878  145.1554  164.1782 C.ar    1  UNL1       -0.0000
     10 C         141.1417  145.1742  163.5326 C.ar    1  UNL1        0.0039
     11 C         142.1369  144.0965  163.8457 C.ar    1  UNL1        0.0715
     12 C         141.7782  142.9999  164.8044 C.ar    1  UNL1        0.0053
     13 C         143.4907  144.1152  163.2002 C.3     1  UNL1        0.4186
     14 F         144.8446  144.1340  162.5546 F       1  UNL1       -0.1659
     15 F         143.7759  145.4431  163.8368 F       1  UNL1       -0.1659
     16 F         143.2056  142.7873  162.5635 F       1  UNL1       -0.1659
     17 C         140.2913  141.1029  170.2930 C.1     1  UNL1        0.1399
     18 N         140.5835  141.2603  171.7558 N.1     1  UNL1       -0.1876
     19 C         138.4055  138.2804  166.3590 C.3     1  UNL1        0.0474
     20 C         138.8627  137.6641  165.0701 C.3     1  UNL1        0.0234
     21 C         140.3189  137.3795  164.8499 C.3     1  UNL1        0.0689
     22 N         141.1406  138.2951  163.9917 N.3     1  UNL1       -0.2985
     23 H         141.2395  137.8388  163.0848 H       1  UNL1        0.1232
     24 C         142.5189  138.6954  164.4276 C.3     1  UNL1        0.0540
     25 C         144.6996  140.0403  163.9966 C.3     1  UNL1        0.0014
     26 C         143.4023  139.4749  163.4992 C.3     1  UNL1        0.0157
     27 C         143.0137  138.3163  165.7920 C.3     1  UNL1        0.0157
     28 C         142.7322  139.2065  166.9660 C.3     1  UNL1        0.0014
@<TRIPOS>BOND
     1    25    26    1
     2    26    24    1
     3    24    27    1
     4    27    28    1
     5    24    22    1
     6    22    21    1
     7    21    20    1
     8    20    19    1
     9    19     1    1
    10     1     2   ar
    11     2     3   ar
    12     3     7    1
    13     7     8   ar
    14     8     9   ar
    15     9    10   ar
    16    10    11   ar
    17    11    13    1
    18    13    14    1
    19    13    15    1
    20    13    16    1
    21    11    12   ar
    22     3     4   ar
    23     4     5   ar
    24     5    17    1
    25    17    18    3
    26     5     6   ar
    27     6     1   ar
    28    12     7   ar
    29    22    23    1
@<TRIPOS>MOLECULE
*****
 28 29 0 0 0
SMALL
GASTEIGER

@<TRIPOS>ATOM
      1 C         140.2346  144.0145  163.5723 C.ar    1  UNL1        0.0628
      2 C         140.3294  143.5232  164.9863 C.ar    1  UNL1        0.0339
      3 C         141.5742  142.8319  165.4582 C.ar    1  UNL1        0.0848
      4 N         142.7241  142.6319  164.5161 N.ar    1  UNL1       -0.2178
      5 C         142.6292  143.1232  163.1021 C.ar    1  UNL1        0.2327
      6 N         141.3845  143.8145  162.6302 N.ar    1  UNL1       -0.2222
      7 C         141.6690  142.3406  166.8724 C.ar    1  UNL1        0.0177
      8 C         142.9903  142.3494  167.5824 C.ar    1  UNL1        0.0015
      9 C         143.0851  141.8582  168.9965 C.ar    1  UNL1       -0.0000
     10 C         141.8587  141.3579  169.7006 C.ar    1  UNL1        0.0039
     11 C         140.5374  141.3491  168.9905 C.ar    1  UNL1        0.0715
     12 C         140.4426  141.8404  167.5764 C.ar    1  UNL1        0.0053
     13 C         139.3110  140.8489  169.6945 C.3     1  UNL1        0.4186
     14 F         138.0846  140.3487  170.3985 F       1  UNL1       -0.1659
     15 F         139.4310  139.5392  168.9732 F       1  UNL1       -0.1659
     16 F         139.1909  142.1585  170.4159 F       1  UNL1       -0.1659
     17 C         143.7792  142.9233  162.1598 C.1     1  UNL1        0.1399
     18 N         144.9291  142.7234  161.2176 N.1     1  UNL1       -0.1876
     19 C         138.9898  144.7058  163.1004 C.3     1  UNL1        0.0474
     20 C         137.6883  143.9613  163.0590 C.3     1  UNL1        0.0234
     21 C         137.6049  142.6346  162.3642 C.3     1  UNL1        0.0689
     22 N         137.0317  141.4476  163.0803 N.3     1  UNL1       -0.2985
     23 H         136.4578  141.8115  163.8410 H       1  UNL1        0.1232
     24 C         137.9456  140.4207  163.6805 C.3     1  UNL1        0.0540
     25 C         137.7310  138.6836  161.7604 C.3     1  UNL1        0.0014
     26 C         138.5582  139.3625  162.8116 C.3     1  UNL1        0.0157
     27 C         138.2469  140.4519  165.1496 C.3     1  UNL1        0.0157
     28 C         138.1143  139.2025  165.9691 C.3     1  UNL1        0.0014
@<TRIPOS>BOND
     1    25    26    1
     2    26    24    1
     3    24    27    1
     4    27    28    1
     5    24    22    1
     6    22    21    1
     7    21    20    1
     8    20    19    1
     9    19     1    1
    10     1     2   ar
    11     2     3   ar
    12     3     7    1
    13     7     8   ar
    14     8     9   ar
    15     9    10   ar
    16    10    11   ar
    17    11    13    1
    18    13    14    1
    19    13    15    1
    20    13    16    1
    21    11    12   ar
    22     3     4   ar
    23     4     5   ar
    24     5    17    1
    25    17    18    3
    26     5     6   ar
    27     6     1   ar
    28    12     7   ar
    29    22    23    1
@<TRIPOS>MOLECULE
*****
 28 29 0 0 0
SMALL
GASTEIGER

@<TRIPOS>ATOM
      1 C         142.0967  141.6140  162.2266 C.ar    1  UNL1        0.0628
      2 C         141.6612  141.0689  163.5544 C.ar    1  UNL1        0.0339
      3 C         140.6404  141.8062  164.3695 C.ar    1  UNL1        0.0848
      4 N         140.0552  143.0885  163.8569 N.ar    1  UNL1       -0.2178
      5 C         140.4907  143.6337  162.5291 C.ar    1  UNL1        0.2327
      6 N         141.5115  142.8964  161.7139 N.ar    1  UNL1       -0.2222
      7 C         140.2049  141.2609  165.6974 C.ar    1  UNL1        0.0177
      8 C         140.7583  141.8420  166.9647 C.ar    1  UNL1        0.0015
      9 C         140.3228  141.2969  168.2925 C.ar    1  UNL1       -0.0000
     10 C         139.3339  140.1706  168.3531 C.ar    1  UNL1        0.0039
     11 C         138.7806  139.5895  167.0858 C.ar    1  UNL1        0.0715
     12 C         139.2161  140.1347  165.7579 C.ar    1  UNL1        0.0053
     13 C         137.7917  138.4632  167.1463 C.3     1  UNL1        0.4186
     14 F         136.8029  137.3370  167.2068 F       1  UNL1       -0.1659
     15 F         137.3747  138.9030  168.5184 F       1  UNL1       -0.1659
     16 F         138.2087  138.0234  165.7742 F       1  UNL1       -0.1659
     17 C         139.9054  144.9162  162.0163 C.1     1  UNL1        0.1399
     18 N         139.3201  146.1985  161.5037 N.1     1  UNL1       -0.1876
     19 C         143.1175  140.8768  161.4115 C.3     1  UNL1        0.0474
     20 C         143.5497  139.4993  161.8184 C.3     1  UNL1        0.0234
     21 C         143.1268  138.3103  161.0075 C.3     1  UNL1        0.0689
     22 N         142.3247  137.2147  161.6449 N.3     1  UNL1       -0.2985
     23 H         142.0177  136.5984  160.8923 H       1  UNL1        0.1232
     24 C         141.1069  137.5501  162.4539 C.3     1  UNL1        0.0540
     25 C         141.9161  137.8394  164.9057 C.3     1  UNL1        0.0014
     26 C         141.0358  137.1584  163.9001 C.3     1  UNL1        0.0157
     27 C         139.9600  138.2772  161.8166 C.3     1  UNL1        0.0157
     28 C         138.6234  138.3121  162.4964 C.3     1  UNL1        0.0014
@<TRIPOS>BOND
     1    25    26    1
     2    26    24    1
     3    24    27    1
     4    27    28    1
     5    24    22    1
     6    22    21    1
     7    21    20    1
     8    20    19    1
     9    19     1    1
    10     1     2   ar
    11     2     3   ar
    12     3     7    1
    13     7     8   ar
    14     8     9   ar
    15     9    10   ar
    16    10    11   ar
    17    11    13    1
    18    13    14    1
    19    13    15    1
    20    13    16    1
    21    11    12   ar
    22     3     4   ar
    23     4     5   ar
    24     5    17    1
    25    17    18    3
    26     5     6   ar
    27     6     1   ar
    28    12     7   ar
    29    22    23    1
@<TRIPOS>MOLECULE
*****
 28 29 0 0 0
SMALL
GASTEIGER

@<TRIPOS>ATOM
      1 C         140.4406  142.9040  163.4261 C.ar    1  UNL1        0.0628
      2 C         140.7183  143.0980  164.8873 C.ar    1  UNL1        0.0339
      3 C         141.6479  142.1645  165.6045 C.ar    1  UNL1        0.0848
      4 N         142.2999  141.0370  164.8604 N.ar    1  UNL1       -0.2178
      5 C         142.0222  140.8430  163.3992 C.ar    1  UNL1        0.2327
      6 N         141.0926  141.7765  162.6820 N.ar    1  UNL1       -0.2222
      7 C         141.9255  142.3586  167.0658 C.ar    1  UNL1        0.0177
      8 C         143.3239  142.2148  167.5891 C.ar    1  UNL1        0.0015
      9 C         143.6016  142.4088  169.0503 C.ar    1  UNL1       -0.0000
     10 C         142.4808  142.7466  169.9883 C.ar    1  UNL1        0.0039
     11 C         141.0824  142.8904  169.4650 C.ar    1  UNL1        0.0715
     12 C         140.8048  142.6964  168.0037 C.ar    1  UNL1        0.0053
     13 C         139.9617  143.2283  170.4030 C.3     1  UNL1        0.4186
     14 F         138.8410  143.5661  171.3409 F       1  UNL1       -0.1659
     15 F         139.7003  141.7668  170.6170 F       1  UNL1       -0.1659
     16 F         140.2231  144.6897  170.1889 F       1  UNL1       -0.1659
     17 C         142.6742  139.7155  162.6551 C.1     1  UNL1        0.1399
     18 N         143.3261  138.5880  161.9110 N.1     1  UNL1       -0.1876
     19 C         139.5110  143.8376  162.7089 C.3     1  UNL1        0.0474
     20 C         138.0781  143.4501  162.4933 C.3     1  UNL1        0.0234
     21 C         137.3541  142.6461  163.5323 C.3     1  UNL1        0.0689
     22 N         136.9385  141.2359  163.2342 N.3     1  UNL1       -0.2985
     23 H         136.1332  141.0347  163.8270 H       1  UNL1        0.1232
     24 C         137.9110  140.1105  163.4285 C.3     1  UNL1        0.0540
     25 C         137.9912  139.3702  165.9175 C.3     1  UNL1        0.0014
     26 C         138.6597  139.9811  164.7218 C.3     1  UNL1        0.0157
     27 C         138.1348  139.1145  162.3294 C.3     1  UNL1        0.0157
     28 C         139.0108  137.9202  162.5664 C.3     1  UNL1        0.0014
@<TRIPOS>BOND
     1    25    26    1
     2    26    24    1
     3    24    27    1
     4    27    28    1
     5    24    22    1
     6    22    21    1
     7    21    20    1
     8    20    19    1
     9    19     1    1
    10     1     2   ar
    11     2     3   ar
    12     3     7    1
    13     7     8   ar
    14     8     9   ar
    15     9    10   ar
    16    10    11   ar
    17    11    13    1
    18    13    14    1
    19    13    15    1
    20    13    16    1
    21    11    12   ar
    22     3     4   ar
    23     4     5   ar
    24     5    17    1
    25    17    18    3
    26     5     6   ar
    27     6     1   ar
    28    12     7   ar
    29    22    23    1
@<TRIPOS>MOLECULE
*****
 28 29 0 0 0
SMALL
GASTEIGER

@<TRIPOS>ATOM
      1 C         138.9919  140.9509  163.1025 C.ar    1  UNL1        0.0628
      2 C         139.6606  141.0264  164.4430 C.ar    1  UNL1        0.0339
      3 C         140.3663  142.2828  164.8594 C.ar    1  UNL1        0.0848
      4 N         140.4034  143.4637  163.9352 N.ar    1  UNL1       -0.2178
      5 C         139.7347  143.3881  162.5946 C.ar    1  UNL1        0.2327
      6 N         139.0290  142.1317  162.1783 N.ar    1  UNL1       -0.2222
      7 C         141.0351  142.3584  166.2000 C.ar    1  UNL1        0.0177
      8 C         142.5062  142.0915  166.3204 C.ar    1  UNL1        0.0015
      9 C         143.1749  142.1670  167.6609 C.ar    1  UNL1       -0.0000
     10 C         142.3725  142.5094  168.8811 C.ar    1  UNL1        0.0039
     11 C         140.9014  142.7763  168.7608 C.ar    1  UNL1        0.0715
     12 C         140.2326  142.7008  167.4202 C.ar    1  UNL1        0.0053
     13 C         140.0989  143.1187  169.9809 C.3     1  UNL1        0.4186
     14 F         139.2965  143.4610  171.2011 F       1  UNL1       -0.1659
     15 F         139.4844  141.7505  169.9607 F       1  UNL1       -0.1659
     16 F         140.7135  144.4868  170.0012 F       1  UNL1       -0.1659
     17 C         139.7717  144.5690  161.6704 C.1     1  UNL1        0.1399
     18 N         139.8088  145.7498  160.7461 N.1     1  UNL1       -0.1876
     19 C         138.2862  139.6944  162.6862 C.3     1  UNL1        0.0474
     20 C         138.8586  138.3567  163.0506 C.3     1  UNL1        0.0234
     21 C         139.9165  137.7337  162.1888 C.3     1  UNL1        0.0689
     22 N         141.1502  137.1552  162.8161 N.3     1  UNL1       -0.2985
     23 H         140.8407  136.4160  163.4472 H       1  UNL1        0.1232
     24 C         142.0756  138.0361  163.6019 C.3     1  UNL1        0.0540
     25 C         142.7050  140.2998  162.4930 C.3     1  UNL1        0.0014
     26 C         143.0731  138.9008  162.8895 C.3     1  UNL1        0.0157
     27 C         142.0036  138.0524  165.1001 C.3     1  UNL1        0.0157
     28 C         143.2139  138.4228  165.9052 C.3     1  UNL1        0.0014
@<TRIPOS>BOND
     1    25    26    1
     2    26    24    1
     3    24    27    1
     4    27    28    1
     5    24    22    1
     6    22    21    1
     7    21    20    1
     8    20    19    1
     9    19     1    1
    10     1     2   ar
    11     2     3   ar
    12     3     7    1
    13     7     8   ar
    14     8     9   ar
    15     9    10   ar
    16    10    11   ar
    17    11    13    1
    18    13    14    1
    19    13    15    1
    20    13    16    1
    21    11    12   ar
    22     3     4   ar
    23     4     5   ar
    24     5    17    1
    25    17    18    3
    26     5     6   ar
    27     6     1   ar
    28    12     7   ar
    29    22    23    1
@<TRIPOS>MOLECULE
*****
 28 29 0 0 0
SMALL
GASTEIGER

@<TRIPOS>ATOM
      1 C         138.3630  141.8378  163.2034 C.ar    1  UNL1        0.0628
      2 C         139.1275  141.7113  164.4878 C.ar    1  UNL1        0.0339
      3 C         139.9868  142.8448  164.9639 C.ar    1  UNL1        0.0848
      4 N         140.0816  144.1049  164.1558 N.ar    1  UNL1       -0.2178
      5 C         139.3171  144.2314  162.8715 C.ar    1  UNL1        0.2327
      6 N         138.4578  143.0979  162.3953 N.ar    1  UNL1       -0.2222
      7 C         140.7513  142.7182  166.2483 C.ar    1  UNL1        0.0177
      8 C         142.2056  142.3516  166.2225 C.ar    1  UNL1        0.0015
      9 C         142.9701  142.2250  167.5068 C.ar    1  UNL1       -0.0000
     10 C         142.2803  142.4649  168.8170 C.ar    1  UNL1        0.0039
     11 C         140.8260  142.8315  168.8429 C.ar    1  UNL1        0.0715
     12 C         140.0615  142.9581  167.5585 C.ar    1  UNL1        0.0053
     13 C         140.1362  143.0715  170.1530 C.3     1  UNL1        0.4186
     14 F         139.4464  143.3114  171.4632 F       1  UNL1       -0.1659
     15 F         140.4366  144.5369  170.0428 F       1  UNL1       -0.1659
     16 F         139.8358  141.6060  170.2633 F       1  UNL1       -0.1659
     17 C         139.4119  145.4916  162.0633 C.1     1  UNL1        0.1399
     18 N         139.5066  146.7516  161.2551 N.1     1  UNL1       -0.1876
     19 C         137.5037  140.7043  162.7273 C.3     1  UNL1        0.0474
     20 C         137.9793  139.8192  161.6136 C.3     1  UNL1        0.0234
     21 C         138.9339  138.6985  161.9017 C.3     1  UNL1        0.0689
     22 N         138.6593  137.7513  163.0319 N.3     1  UNL1       -0.2985
     23 H         137.6666  137.8345  163.2513 H       1  UNL1        0.1232
     24 C         139.4025  137.8936  164.3271 C.3     1  UNL1        0.0540
     25 C         141.5065  138.7629  165.5791 C.3     1  UNL1        0.0014
     26 C         140.8543  138.2704  164.3212 C.3     1  UNL1        0.0157
     27 C         138.6937  137.6591  165.6282 C.3     1  UNL1        0.0157
     28 C         137.9731  138.7879  166.3038 C.3     1  UNL1        0.0014
@<TRIPOS>BOND
     1    25    26    1
     2    26    24    1
     3    24    27    1
     4    27    28    1
     5    24    22    1
     6    22    21    1
     7    21    20    1
     8    20    19    1
     9    19     1    1
    10     1     2   ar
    11     2     3   ar
    12     3     7    1
    13     7     8   ar
    14     8     9   ar
    15     9    10   ar
    16    10    11   ar
    17    11    13    1
    18    13    14    1
    19    13    15    1
    20    13    16    1
    21    11    12   ar
    22     3     4   ar
    23     4     5   ar
    24     5    17    1
    25    17    18    3
    26     5     6   ar
    27     6     1   ar
    28    12     7   ar
    29    22    23    1
@<TRIPOS>MOLECULE
*****
 28 29 0 0 0
SMALL
GASTEIGER

@<TRIPOS>ATOM
      1 C         138.9733  139.6340  166.9774 C.ar    1  UNL1        0.0628
      2 C         139.6120  140.6002  166.0243 C.ar    1  UNL1        0.0339
      3 C         140.5061  141.6865  166.5444 C.ar    1  UNL1        0.0848
      4 N         140.7615  141.8066  168.0176 N.ar    1  UNL1       -0.2178
      5 C         140.1228  140.8404  168.9707 C.ar    1  UNL1        0.2327
      6 N         139.2287  139.7541  168.4506 N.ar    1  UNL1       -0.2222
      7 C         141.1448  142.6528  165.5913 C.ar    1  UNL1        0.0177
      8 C         142.6395  142.7514  165.5126 C.ar    1  UNL1        0.0015
      9 C         143.2782  143.7176  164.5595 C.ar    1  UNL1       -0.0000
     10 C         142.4223  144.5852  163.6850 C.ar    1  UNL1        0.0039
     11 C         140.9276  144.4865  163.7636 C.ar    1  UNL1        0.0715
     12 C         140.2889  143.5203  164.7168 C.ar    1  UNL1        0.0053
     13 C         140.0717  145.3540  162.8891 C.3     1  UNL1        0.4186
     14 F         139.2157  146.2215  162.0147 F       1  UNL1       -0.1659
     15 F         141.1791  145.4298  161.8803 F       1  UNL1       -0.1659
     16 F         138.9642  145.2782  163.8979 F       1  UNL1       -0.1659
     17 C         140.3781  140.9605  170.4440 C.1     1  UNL1        0.1399
     18 N         140.6335  141.0805  171.9172 N.1     1  UNL1       -0.1876
     19 C         138.0792  138.5477  166.4573 C.3     1  UNL1        0.0474
     20 C         138.6354  137.4860  165.5554 C.3     1  UNL1        0.0234
     21 C         139.1904  137.8580  164.2124 C.3     1  UNL1        0.0689
     22 N         138.3428  138.6170  163.2348 N.3     1  UNL1       -0.2985
     23 H         138.1250  137.9745  162.4731 H       1  UNL1        0.1232
     24 C         138.8670  139.8734  162.6050 C.3     1  UNL1        0.0540
     25 C         137.3873  141.9269  163.1913 C.3     1  UNL1        0.0014
     26 C         137.9159  140.9528  162.1804 C.3     1  UNL1        0.0157
     27 C         140.3423  140.0504  162.3997 C.3     1  UNL1        0.0157
     28 C         140.8697  141.3233  161.8067 C.3     1  UNL1        0.0014
@<TRIPOS>BOND
     1    25    26    1
     2    26    24    1
     3    24    27    1
     4    27    28    1
     5    24    22    1
     6    22    21    1
     7    21    20    1
     8    20    19    1
     9    19     1    1
    10     1     2   ar
    11     2     3   ar
    12     3     7    1
    13     7     8   ar
    14     8     9   ar
    15     9    10   ar
    16    10    11   ar
    17    11    13    1
    18    13    14    1
    19    13    15    1
    20    13    16    1
    21    11    12   ar
    22     3     4   ar
    23     4     5   ar
    24     5    17    1
    25    17    18    3
    26     5     6   ar
    27     6     1   ar
    28    12     7   ar
    29    22    23    1
@<TRIPOS>MOLECULE
*****
 28 29 0 0 0
SMALL
GASTEIGER

@<TRIPOS>ATOM
      1 C         139.4850  140.6679  163.9960 C.ar    1  UNL1        0.0628
      2 C         139.8618  141.1609  165.3616 C.ar    1  UNL1        0.0339
      3 C         141.3027  141.4048  165.6998 C.ar    1  UNL1        0.0848
      4 N         142.3667  141.1557  164.6724 N.ar    1  UNL1       -0.2178
      5 C         141.9899  140.6627  163.3068 C.ar    1  UNL1        0.2327
      6 N         140.5490  140.4188  162.9686 N.ar    1  UNL1       -0.2222
      7 C         141.6795  141.8979  167.0655 C.ar    1  UNL1        0.0177
      8 C         143.1232  141.9632  167.4673 C.ar    1  UNL1        0.0015
      9 C         143.5000  142.4562  168.8329 C.ar    1  UNL1       -0.0000
     10 C         142.4331  142.8839  169.7967 C.ar    1  UNL1        0.0039
     11 C         140.9894  142.8186  169.3949 C.ar    1  UNL1        0.0715
     12 C         140.6126  142.3256  168.0292 C.ar    1  UNL1        0.0053
     13 C         139.9225  143.2463  170.3586 C.3     1  UNL1        0.4186
     14 F         138.8556  143.6740  171.3223 F       1  UNL1       -0.1659
     15 F         139.4904  141.8184  170.5140 F       1  UNL1       -0.1659
     16 F         140.3546  144.6743  170.2032 F       1  UNL1       -0.1659
     17 C         143.0540  140.4136  162.2792 C.1     1  UNL1        0.1399
     18 N         144.1181  140.1644  161.2518 N.1     1  UNL1       -0.1876
     19 C         138.0441  140.4240  163.6579 C.3     1  UNL1        0.0474
     20 C         137.1656  141.5688  163.2487 C.3     1  UNL1        0.0234
     21 C         137.6715  142.5919  162.2754 C.3     1  UNL1        0.0689
     22 N         137.7716  144.0315  162.6848 N.3     1  UNL1       -0.2985
     23 H         137.4708  144.5870  161.8840 H       1  UNL1        0.1232
     24 C         139.0880  144.5942  163.1323 C.3     1  UNL1        0.0540
     25 C         138.2326  144.7920  165.5775 C.3     1  UNL1        0.0014
     26 C         139.3655  144.7817  164.5944 C.3     1  UNL1        0.0157
     27 C         140.1271  144.9695  162.1176 C.3     1  UNL1        0.0157
     28 C         139.9504  146.2045  161.2847 C.3     1  UNL1        0.0014
@<TRIPOS>BOND
     1    25    26    1
     2    26    24    1
     3    24    27    1
     4    27    28    1
     5    24    22    1
     6    22    21    1
     7    21    20    1
     8    20    19    1
     9    19     1    1
    10     1     2   ar
    11     2     3   ar
    12     3     7    1
    13     7     8   ar
    14     8     9   ar
    15     9    10   ar
    16    10    11   ar
    17    11    13    1
    18    13    14    1
    19    13    15    1
    20    13    16    1
    21    11    12   ar
    22     3     4   ar
    23     4     5   ar
    24     5    17    1
    25    17    18    3
    26     5     6   ar
    27     6     1   ar
    28    12     7   ar
    29    22    23    1
