@<TRIPOS>MOLECULE
*****
 44 47 0 0 0
SMALL
GASTEIGER

@<TRIPOS>ATOM
      1 C         141.9614  141.1714  162.5460 C.3     1  UNL1        0.0809
      2 C         142.1855  141.4991  163.9926 C.ar    1  UNL1        0.0375
      3 C         141.1334  141.1663  165.0087 C.ar    1  UNL1        0.0023
      4 C         141.3574  141.4940  166.4552 C.ar    1  UNL1        0.0181
      5 C         140.3053  141.1612  167.4712 C.ar    1  UNL1        0.0082
      6 C         140.5294  141.4889  168.9178 C.ar    1  UNL1        0.0347
      7 BR        139.4774  141.1561  169.9339 Br      1  UNL1       -0.0490
      8 C         141.8055  142.1493  169.3482 C.ar    1  UNL1        0.0082
      9 C         142.8576  142.4821  168.3322 C.ar    1  UNL1        0.0197
     10 C         142.6336  142.1544  166.8857 C.ar    1  UNL1        0.0844
     11 N         143.6857  142.4872  165.8696 N.ar    1  UNL1       -0.2119
     12 C         143.4616  142.1595  164.4230 C.ar    1  UNL1        0.2211
     13 O         144.5136  142.4923  163.4070 O.3     1  UNL1       -0.4563
     14 C         145.7805  141.6913  163.3491 C.3     1  UNL1        0.2542
     15 C         142.0427  142.2536  161.5106 C.ar    1  UNL1        0.0276
     16 C         141.1608  143.4622  161.6179 C.ar    1  UNL1        0.0570
     17 C         141.2422  144.5444  160.5825 C.ar    1  UNL1        0.2274
     18 N         142.2055  144.4180  159.4396 N.ar    1  UNL1       -0.1741
     19 C         143.0874  143.2094  159.3322 C.ar    1  UNL1        0.2623
     20 C         143.0060  142.1272  160.3677 C.ar    1  UNL1        0.1881
     21 O         140.3602  145.7530  160.6898 O.3     1  UNL1       -0.4561
     22 C         139.7073  146.0912  161.9973 C.3     1  UNL1        0.2542
     23 O         144.0506  143.0830  158.1894 O.3     1  UNL1       -0.4540
     24 C         143.5401  142.8180  156.8041 C.3     1  UNL1        0.2543
     25 O         143.8879  140.9186  160.2604 O.3     1  UNL1       -0.4670
     26 C         143.6543  139.9141  159.1711 C.3     1  UNL1        0.2527
     27 C         141.6559  139.7616  162.1350 C.3     1  UNL1        0.1162
     28 O         143.0231  139.3353  162.5811 O.3     1  UNL1       -0.3820
     29 H         143.1316  138.3838  162.4267 H       1  UNL1        0.2107
     30 C         138.4909  140.3872  159.8239 C.ar    1  UNL1        0.2272
     31 C         139.8581  139.9609  160.2701 C.ar    1  UNL1        0.0559
     32 C         140.2887  140.1878  161.6889 C.ar    1  UNL1        0.0117
     33 C         139.3521  140.8409  162.6615 C.ar    1  UNL1        0.0559
     34 C         137.9849  141.2672  162.2154 C.ar    1  UNL1        0.2272
     35 N         137.5543  141.0403  160.7966 N.ar    1  UNL1       -0.1767
     36 C         139.0882  140.0442  157.3188 C.3     1  UNL1        0.2542
     37 O         138.0603  140.1603  158.4050 O.3     1  UNL1       -0.4561
     38 O         137.0483  141.9204  163.1882 O.3     1  UNL1       -0.4561
     39 C         137.5938  142.7442  164.3168 C.3     1  UNL1        0.2542
     40 C         141.3505  138.3517  161.7240 C.3     1  UNL1        0.0491
     41 C         141.2876  137.2661  162.7573 C.3     1  UNL1        0.0750
     42 N         140.9543  137.6036  164.1803 N.3     1  UNL1       -0.2702
     43 C         139.5226  137.7681  164.5965 C.3     1  UNL1        0.0897
     44 C         142.0527  137.7766  165.1872 C.3     1  UNL1        0.0897
@<TRIPOS>BOND
     1    36    37    1
     2    37    30    1
     3    30    31   ar
     4    31    32   ar
     5    32    27    1
     6    27    28    1
     7    27    40    1
     8    40    41    1
     9    41    42    1
    10    42    43    1
    11    42    44    1
    12    27     1    1
    13     1     2    1
    14     2     3   ar
    15     3     4   ar
    16     4     5   ar
    17     5     6   ar
    18     6     7    1
    19     6     8   ar
    20     8     9   ar
    21     9    10   ar
    22    10    11   ar
    23    11    12   ar
    24    12    13    1
    25    13    14    1
    26     1    15    1
    27    15    16   ar
    28    16    17   ar
    29    17    21    1
    30    21    22    1
    31    17    18   ar
    32    18    19   ar
    33    19    23    1
    34    23    24    1
    35    19    20   ar
    36    20    25    1
    37    25    26    1
    38    32    33   ar
    39    33    34   ar
    40    34    38    1
    41    38    39    1
    42    34    35   ar
    43    35    30   ar
    44    12     2   ar
    45    20    15   ar
    46    10     4   ar
    47    28    29    1
@<TRIPOS>MOLECULE
*****
 44 47 0 0 0
SMALL
GASTEIGER

@<TRIPOS>ATOM
      1 C         141.9825  141.1813  162.5311 C.3     1  UNL1        0.0809
      2 C         142.1978  141.5073  163.9793 C.ar    1  UNL1        0.0375
      3 C         141.1464  141.1589  164.9909 C.ar    1  UNL1        0.0023
      4 C         141.3616  141.4849  166.4391 C.ar    1  UNL1        0.0181
      5 C         140.3102  141.1365  167.4506 C.ar    1  UNL1        0.0082
      6 C         140.5256  141.4625  168.8989 C.ar    1  UNL1        0.0347
      7 BR        139.4741  141.1142  169.9104 Br      1  UNL1       -0.0490
      8 C         141.7923  142.1368  169.3356 C.ar    1  UNL1        0.0082
      9 C         142.8437  142.4851  168.3241 C.ar    1  UNL1        0.0197
     10 C         142.6284  142.1592  166.8758 C.ar    1  UNL1        0.0844
     11 N         143.6798  142.5075  165.8643 N.ar    1  UNL1       -0.2119
     12 C         143.4645  142.1815  164.4160 C.ar    1  UNL1        0.2211
     13 O         144.5159  142.5298  163.4045 O.3     1  UNL1       -0.4563
     14 C         145.7418  141.6756  163.2724 C.3     1  UNL1        0.2542
     15 C         142.0656  142.2655  161.4979 C.ar    1  UNL1        0.0276
     16 C         141.1949  143.4813  161.6147 C.ar    1  UNL1        0.0570
     17 C         141.2781  144.5655  160.5815 C.ar    1  UNL1        0.2274
     18 N         142.2320  144.4339  159.4314 N.ar    1  UNL1       -0.1741
     19 C         143.1027  143.2181  159.3145 C.ar    1  UNL1        0.2623
     20 C         143.0195  142.1338  160.3478 C.ar    1  UNL1        0.1881
     21 O         140.4074  145.7813  160.6984 O.3     1  UNL1       -0.4561
     22 C         139.6671  146.0538  161.9743 C.3     1  UNL1        0.2542
     23 O         144.0566  143.0865  158.1644 O.3     1  UNL1       -0.4540
     24 C         143.5333  142.8414  156.7803 C.3     1  UNL1        0.2543
     25 O         143.8902  140.9180  160.2309 O.3     1  UNL1       -0.4670
     26 C         143.6436  139.9212  159.1375 C.3     1  UNL1        0.2527
     27 C         141.6839  139.7711  162.1161 C.3     1  UNL1        0.1162
     28 O         143.0493  139.3482  162.5710 O.3     1  UNL1       -0.3820
     29 H         143.1616  138.3972  162.4160 H       1  UNL1        0.2107
     30 C         138.0047  141.2575  162.1758 C.ar    1  UNL1        0.2272
     31 C         139.3701  140.8346  162.6306 C.ar    1  UNL1        0.0559
     32 C         140.3186  140.1939  161.6612 C.ar    1  UNL1        0.0117
     33 C         139.9017  139.9762  160.2369 C.ar    1  UNL1        0.0559
     34 C         138.5363  140.3991  159.7820 C.ar    1  UNL1        0.2272
     35 N         137.5878  141.0397  160.7514 N.ar    1  UNL1       -0.1767
     36 C         137.5881  142.6471  164.3312 C.3     1  UNL1        0.2542
     37 O         137.0562  141.8982  163.1453 O.3     1  UNL1       -0.4561
     38 O         138.1194  140.1812  158.3576 O.3     1  UNL1       -0.4561
     39 C         139.1241  139.7183  157.3446 C.3     1  UNL1        0.2542
     40 C         141.3854  138.3609  161.7011 C.3     1  UNL1        0.0491
     41 C         141.3425  137.2696  162.7294 C.3     1  UNL1        0.0750
     42 N         140.9850  137.5916  164.1502 N.3     1  UNL1       -0.2702
     43 C         139.5463  137.7483  164.5445 C.3     1  UNL1        0.0897
     44 C         142.0663  137.7568  165.1766 C.3     1  UNL1        0.0897
@<TRIPOS>BOND
     1    36    37    1
     2    37    30    1
     3    30    31   ar
     4    31    32   ar
     5    32    27    1
     6    27    28    1
     7    27    40    1
     8    40    41    1
     9    41    42    1
    10    42    43    1
    11    42    44    1
    12    27     1    1
    13     1     2    1
    14     2     3   ar
    15     3     4   ar
    16     4     5   ar
    17     5     6   ar
    18     6     7    1
    19     6     8   ar
    20     8     9   ar
    21     9    10   ar
    22    10    11   ar
    23    11    12   ar
    24    12    13    1
    25    13    14    1
    26     1    15    1
    27    15    16   ar
    28    16    17   ar
    29    17    21    1
    30    21    22    1
    31    17    18   ar
    32    18    19   ar
    33    19    23    1
    34    23    24    1
    35    19    20   ar
    36    20    25    1
    37    25    26    1
    38    32    33   ar
    39    33    34   ar
    40    34    38    1
    41    38    39    1
    42    34    35   ar
    43    35    30   ar
    44    12     2   ar
    45    20    15   ar
    46    10     4   ar
    47    28    29    1
@<TRIPOS>MOLECULE
*****
 44 47 0 0 0
SMALL
GASTEIGER

@<TRIPOS>ATOM
      1 C         141.5831  140.6732  163.3945 C.3     1  UNL1        0.0809
      2 C         141.8230  140.5760  164.8721 C.ar    1  UNL1        0.0375
      3 C         140.9960  141.3914  165.8214 C.ar    1  UNL1        0.0023
      4 C         141.2358  141.2942  167.2988 C.ar    1  UNL1        0.0181
      5 C         140.4088  142.1096  168.2482 C.ar    1  UNL1        0.0082
      6 C         140.6487  142.0124  169.7257 C.ar    1  UNL1        0.0347
      7 BR        139.8217  142.8278  170.6750 Br      1  UNL1       -0.0490
      8 C         141.7155  141.0998  170.2539 C.ar    1  UNL1        0.0082
      9 C         142.5425  140.2844  169.3046 C.ar    1  UNL1        0.0197
     10 C         142.3027  140.3816  167.8271 C.ar    1  UNL1        0.0844
     11 N         143.1297  139.5662  166.8778 N.ar    1  UNL1       -0.2119
     12 C         142.8898  139.6634  165.4002 C.ar    1  UNL1        0.2211
     13 O         143.7168  138.8480  164.4509 O.3     1  UNL1       -0.4563
     14 C         145.0663  139.3400  164.0189 C.3     1  UNL1        0.2542
     15 C         142.4653  141.5412  162.5470 C.ar    1  UNL1        0.0276
     16 C         142.8330  142.9187  163.0131 C.ar    1  UNL1        0.0570
     17 C         143.7152  143.7867  162.1656 C.ar    1  UNL1        0.2274
     18 N         144.2298  143.2772  160.8519 N.ar    1  UNL1       -0.1741
     19 C         143.8621  141.8997  160.3858 C.ar    1  UNL1        0.2623
     20 C         142.9798  141.0317  161.2334 C.ar    1  UNL1        0.1881
     21 O         144.0829  145.1642  162.6317 O.3     1  UNL1       -0.4561
     22 C         143.7601  145.5931  164.0324 C.3     1  UNL1        0.2542
     23 O         144.3766  141.3901  159.0722 O.3     1  UNL1       -0.4540
     24 C         144.9323  142.3491  158.0615 C.3     1  UNL1        0.2543
     25 O         142.6121  139.6542  160.7673 O.3     1  UNL1       -0.4670
     26 C         143.6544  138.5766  160.7160 C.3     1  UNL1        0.2527
     27 C         140.4611  139.9025  162.7645 C.3     1  UNL1        0.1162
     28 O         141.1651  138.6169  163.0834 O.3     1  UNL1       -0.3820
     29 H         140.6327  137.8699  162.7681 H       1  UNL1        0.2107
     30 C         138.4537  143.2941  163.2301 C.ar    1  UNL1        0.2272
     31 C         139.1577  142.0086  163.5490 C.ar    1  UNL1        0.0559
     32 C         139.7570  141.1880  162.4457 C.ar    1  UNL1        0.0117
     33 C         139.6523  141.6530  161.0234 C.ar    1  UNL1        0.0559
     34 C         138.9483  142.9386  160.7046 C.ar    1  UNL1        0.2272
     35 N         138.3490  143.7591  161.8079 N.ar    1  UNL1       -0.1767
     36 C         138.7454  144.8192  165.3132 C.3     1  UNL1        0.2542
     37 O         137.8543  144.1147  164.3336 O.3     1  UNL1       -0.4561
     38 O         138.8436  143.4036  159.2822 O.3     1  UNL1       -0.4561
     39 C         139.9904  144.1302  158.6444 C.3     1  UNL1        0.2542
     40 C         139.3390  139.1317  162.1346 C.3     1  UNL1        0.0491
     41 C         138.4041  138.3318  162.9926 C.3     1  UNL1        0.0750
     42 N         138.5952  138.2977  164.4800 N.3     1  UNL1       -0.2702
     43 C         138.0370  139.3978  165.3333 C.3     1  UNL1        0.0897
     44 C         139.3443  137.1633  165.1142 C.3     1  UNL1        0.0897
@<TRIPOS>BOND
     1    36    37    1
     2    37    30    1
     3    30    31   ar
     4    31    32   ar
     5    32    27    1
     6    27    28    1
     7    27    40    1
     8    40    41    1
     9    41    42    1
    10    42    43    1
    11    42    44    1
    12    27     1    1
    13     1     2    1
    14     2     3   ar
    15     3     4   ar
    16     4     5   ar
    17     5     6   ar
    18     6     7    1
    19     6     8   ar
    20     8     9   ar
    21     9    10   ar
    22    10    11   ar
    23    11    12   ar
    24    12    13    1
    25    13    14    1
    26     1    15    1
    27    15    16   ar
    28    16    17   ar
    29    17    21    1
    30    21    22    1
    31    17    18   ar
    32    18    19   ar
    33    19    23    1
    34    23    24    1
    35    19    20   ar
    36    20    25    1
    37    25    26    1
    38    32    33   ar
    39    33    34   ar
    40    34    38    1
    41    38    39    1
    42    34    35   ar
    43    35    30   ar
    44    12     2   ar
    45    20    15   ar
    46    10     4   ar
    47    28    29    1
@<TRIPOS>MOLECULE
*****
 44 47 0 0 0
SMALL
GASTEIGER

@<TRIPOS>ATOM
      1 C         141.4363  142.4535  162.4537 C.3     1  UNL1        0.0809
      2 C         141.8996  142.3714  163.8780 C.ar    1  UNL1        0.0375
      3 C         141.0415  141.6986  164.9081 C.ar    1  UNL1        0.0023
      4 C         141.5047  141.6164  166.3324 C.ar    1  UNL1        0.0181
      5 C         140.6466  140.9437  167.3625 C.ar    1  UNL1        0.0082
      6 C         141.1099  140.8616  168.7869 C.ar    1  UNL1        0.0347
      7 BR        140.2518  140.1888  169.8170 Br      1  UNL1       -0.0490
      8 C         142.4312  141.4521  169.1811 C.ar    1  UNL1        0.0082
      9 C         143.2892  142.1248  168.1509 C.ar    1  UNL1        0.0197
     10 C         142.8260  142.2070  166.7267 C.ar    1  UNL1        0.0844
     11 N         143.6841  142.8797  165.6965 N.ar    1  UNL1       -0.2119
     12 C         143.2208  142.9619  164.2722 C.ar    1  UNL1        0.2211
     13 O         144.0789  143.6346  163.2421 O.3     1  UNL1       -0.4563
     14 C         144.0163  145.1234  163.0700 C.3     1  UNL1        0.2542
     15 C         142.3155  141.9476  161.3487 C.ar    1  UNL1        0.0276
     16 C         142.8173  140.5343  161.3769 C.ar    1  UNL1        0.0570
     17 C         143.6965  140.0284  160.2719 C.ar    1  UNL1        0.2274
     18 N         144.0739  140.9358  159.1386 N.ar    1  UNL1       -0.1741
     19 C         143.5720  142.3491  159.1104 C.ar    1  UNL1        0.2623
     20 C         142.6928  142.8550  160.2154 C.ar    1  UNL1        0.1881
     21 O         144.1983  138.6151  160.3002 O.3     1  UNL1       -0.4561
     22 C         143.8886  137.7326  161.4729 C.3     1  UNL1        0.2542
     23 O         143.9493  143.2564  157.9771 O.3     1  UNL1       -0.4540
     24 C         143.5840  142.8898  156.5693 C.3     1  UNL1        0.2543
     25 O         142.1909  144.2682  160.1872 O.3     1  UNL1       -0.4670
     26 C         141.2054  144.6934  159.1393 C.3     1  UNL1        0.2527
     27 C         140.0938  143.0416  162.1344 C.3     1  UNL1        0.1162
     28 O         140.5693  144.3835  162.6070 O.3     1  UNL1       -0.3820
     29 H         139.8533  145.0313  162.5142 H       1  UNL1        0.2107
     30 C         138.8467  140.1364  159.7355 C.ar    1  UNL1        0.2272
     31 C         139.3222  141.4783  160.2081 C.ar    1  UNL1        0.0559
     32 C         139.6184  141.6997  161.6618 C.ar    1  UNL1        0.0117
     33 C         139.4391  140.5793  162.6429 C.ar    1  UNL1        0.0559
     34 C         138.9637  139.2375  162.1703 C.ar    1  UNL1        0.2272
     35 N         138.6675  139.0160  160.7166 N.ar    1  UNL1       -0.1767
     36 C         137.6681  140.8757  157.5414 C.3     1  UNL1        0.2542
     37 O         138.5505  139.9150  158.2818 O.3     1  UNL1       -0.4561
     38 O         138.7844  138.1171  163.1514 O.3     1  UNL1       -0.4561
     39 C         139.3157  138.2508  164.5478 C.3     1  UNL1        0.2542
     40 C         138.7514  143.6297  161.8151 C.3     1  UNL1        0.0491
     41 C         137.9949  144.3866  162.8664 C.3     1  UNL1        0.0750
     42 N         138.0615  143.9490  164.2995 N.3     1  UNL1       -0.2702
     43 C         138.6304  144.8687  165.3389 C.3     1  UNL1        0.0897
     44 C         137.5590  142.5915  164.6933 C.3     1  UNL1        0.0897
@<TRIPOS>BOND
     1    36    37    1
     2    37    30    1
     3    30    31   ar
     4    31    32   ar
     5    32    27    1
     6    27    28    1
     7    27    40    1
     8    40    41    1
     9    41    42    1
    10    42    43    1
    11    42    44    1
    12    27     1    1
    13     1     2    1
    14     2     3   ar
    15     3     4   ar
    16     4     5   ar
    17     5     6   ar
    18     6     7    1
    19     6     8   ar
    20     8     9   ar
    21     9    10   ar
    22    10    11   ar
    23    11    12   ar
    24    12    13    1
    25    13    14    1
    26     1    15    1
    27    15    16   ar
    28    16    17   ar
    29    17    21    1
    30    21    22    1
    31    17    18   ar
    32    18    19   ar
    33    19    23    1
    34    23    24    1
    35    19    20   ar
    36    20    25    1
    37    25    26    1
    38    32    33   ar
    39    33    34   ar
    40    34    38    1
    41    38    39    1
    42    34    35   ar
    43    35    30   ar
    44    12     2   ar
    45    20    15   ar
    46    10     4   ar
    47    28    29    1
@<TRIPOS>MOLECULE
*****
 44 47 0 0 0
SMALL
GASTEIGER

@<TRIPOS>ATOM
      1 C         141.3933  142.4414  162.4654 C.3     1  UNL1        0.0809
      2 C         141.8628  142.3660  163.8881 C.ar    1  UNL1        0.0375
      3 C         141.0077  141.7010  164.9258 C.ar    1  UNL1        0.0023
      4 C         141.4772  141.6255  166.3484 C.ar    1  UNL1        0.0181
      5 C         140.6221  140.9606  167.3861 C.ar    1  UNL1        0.0082
      6 C         141.0916  140.8852  168.8088 C.ar    1  UNL1        0.0347
      7 BR        140.2365  140.2202  169.8464 Br      1  UNL1       -0.0490
      8 C         142.4161  141.4746  169.1937 C.ar    1  UNL1        0.0082
      9 C         143.2711  142.1395  168.1561 C.ar    1  UNL1        0.0197
     10 C         142.8017  142.2150  166.7334 C.ar    1  UNL1        0.0844
     11 N         143.6568  142.8799  165.6958 N.ar    1  UNL1       -0.2119
     12 C         143.1873  142.9554  164.2731 C.ar    1  UNL1        0.2211
     13 O         144.0424  143.6203  163.2354 O.3     1  UNL1       -0.4563
     14 C         143.9985  145.1105  163.0700 C.3     1  UNL1        0.2542
     15 C         142.2780  141.9534  161.3568 C.ar    1  UNL1        0.0276
     16 C         142.7876  140.5427  161.3697 C.ar    1  UNL1        0.0570
     17 C         143.6723  140.0547  160.2611 C.ar    1  UNL1        0.2274
     18 N         144.0475  140.9774  159.1395 N.ar    1  UNL1       -0.1741
     19 C         143.5379  142.3881  159.1266 C.ar    1  UNL1        0.2623
     20 C         142.6532  142.8761  160.2353 C.ar    1  UNL1        0.1881
     21 O         144.1819  138.6439  160.2739 O.3     1  UNL1       -0.4561
     22 C         143.9067  137.7578  161.4526 C.3     1  UNL1        0.2542
     23 O         143.9131  143.3109  158.0051 O.3     1  UNL1       -0.4540
     24 C         143.4500  143.0205  156.6083 C.3     1  UNL1        0.2543
     25 O         142.1436  144.2869  160.2225 O.3     1  UNL1       -0.4670
     26 C         141.1585  144.7190  159.1770 C.3     1  UNL1        0.2527
     27 C         140.0391  143.0049  162.1515 C.3     1  UNL1        0.1162
     28 O         140.4965  144.3585  162.6082 O.3     1  UNL1       -0.3820
     29 H         139.7694  144.9938  162.5152 H       1  UNL1        0.2107
     30 C         138.9928  139.1774  162.2268 C.ar    1  UNL1        0.2272
     31 C         139.4502  140.5310  162.6835 C.ar    1  UNL1        0.0559
     32 C         139.5817  141.6513  161.6948 C.ar    1  UNL1        0.0117
     33 C         139.2560  141.4180  160.2493 C.ar    1  UNL1        0.0559
     34 C         138.7986  140.0643  159.7926 C.ar    1  UNL1        0.2272
     35 N         138.6670  138.9441  160.7814 N.ar    1  UNL1       -0.1767
     36 C         139.6135  138.1092  164.5124 C.3     1  UNL1        0.2542
     37 O         138.8613  138.0571  163.2157 O.3     1  UNL1       -0.4561
     38 O         138.4728  139.8310  158.3471 O.3     1  UNL1       -0.4561
     39 C         137.7869  140.9012  157.5507 C.3     1  UNL1        0.2542
     40 C         138.6849  143.5684  161.8375 C.3     1  UNL1        0.0491
     41 C         137.9259  144.3255  162.8868 C.3     1  UNL1        0.0750
     42 N         138.0258  143.9164  164.3264 N.3     1  UNL1       -0.2702
     43 C         138.5823  144.8712  165.3406 C.3     1  UNL1        0.0897
     44 C         137.5692  142.5523  164.7519 C.3     1  UNL1        0.0897
@<TRIPOS>BOND
     1    36    37    1
     2    37    30    1
     3    30    31   ar
     4    31    32   ar
     5    32    27    1
     6    27    28    1
     7    27    40    1
     8    40    41    1
     9    41    42    1
    10    42    43    1
    11    42    44    1
    12    27     1    1
    13     1     2    1
    14     2     3   ar
    15     3     4   ar
    16     4     5   ar
    17     5     6   ar
    18     6     7    1
    19     6     8   ar
    20     8     9   ar
    21     9    10   ar
    22    10    11   ar
    23    11    12   ar
    24    12    13    1
    25    13    14    1
    26     1    15    1
    27    15    16   ar
    28    16    17   ar
    29    17    21    1
    30    21    22    1
    31    17    18   ar
    32    18    19   ar
    33    19    23    1
    34    23    24    1
    35    19    20   ar
    36    20    25    1
    37    25    26    1
    38    32    33   ar
    39    33    34   ar
    40    34    38    1
    41    38    39    1
    42    34    35   ar
    43    35    30   ar
    44    12     2   ar
    45    20    15   ar
    46    10     4   ar
    47    28    29    1
@<TRIPOS>MOLECULE
*****
 44 47 0 0 0
SMALL
GASTEIGER

@<TRIPOS>ATOM
      1 C         141.5763  140.6583  163.3898 C.3     1  UNL1        0.0809
      2 C         141.8171  140.5611  164.8672 C.ar    1  UNL1        0.0375
      3 C         140.9905  141.3765  165.8170 C.ar    1  UNL1        0.0023
      4 C         141.2312  141.2793  167.2944 C.ar    1  UNL1        0.0181
      5 C         140.4047  142.0946  168.2442 C.ar    1  UNL1        0.0082
      6 C         140.6455  141.9974  169.7216 C.ar    1  UNL1        0.0347
      7 BR        139.8190  142.8127  170.6714 Br      1  UNL1       -0.0490
      8 C         141.7127  141.0850  170.2491 C.ar    1  UNL1        0.0082
      9 C         142.5393  140.2697  169.2993 C.ar    1  UNL1        0.0197
     10 C         142.2986  140.3668  167.8220 C.ar    1  UNL1        0.0844
     11 N         143.1251  139.5515  166.8722 N.ar    1  UNL1       -0.2119
     12 C         142.8843  139.6487  165.3948 C.ar    1  UNL1        0.2211
     13 O         143.7108  138.8334  164.4450 O.3     1  UNL1       -0.4563
     14 C         145.0563  139.3297  164.0052 C.3     1  UNL1        0.2542
     15 C         142.4565  141.5281  162.5421 C.ar    1  UNL1        0.0276
     16 C         142.8207  142.9067  163.0076 C.ar    1  UNL1        0.0570
     17 C         143.7009  143.7765  162.1599 C.ar    1  UNL1        0.2274
     18 N         144.2170  143.2676  160.8466 N.ar    1  UNL1       -0.1741
     19 C         143.8528  141.8890  160.3810 C.ar    1  UNL1        0.2623
     20 C         142.9725  141.0192  161.2289 C.ar    1  UNL1        0.1881
     21 O         144.0650  145.1551  162.6254 O.3     1  UNL1       -0.4561
     22 C         143.7765  145.5705  164.0377 C.3     1  UNL1        0.2542
     23 O         144.3689  141.3801  159.0678 O.3     1  UNL1       -0.4540
     24 C         144.9136  142.3409  158.0530 C.3     1  UNL1        0.2543
     25 O         142.6084  139.6406  160.7633 O.3     1  UNL1       -0.4670
     26 C         143.6555  138.5682  160.7034 C.3     1  UNL1        0.2527
     27 C         140.4553  139.8857  162.7602 C.3     1  UNL1        0.1162
     28 O         141.1642  138.6016  163.0739 O.3     1  UNL1       -0.3820
     29 H         140.6335  137.8537  162.7576 H       1  UNL1        0.2107
     30 C         138.9132  142.9142  160.7107 C.ar    1  UNL1        0.2272
     31 C         139.6221  141.6300  161.0243 C.ar    1  UNL1        0.0559
     32 C         139.7464  141.1699  162.4466 C.ar    1  UNL1        0.0117
     33 C         139.1617  141.9939  163.5552 C.ar    1  UNL1        0.0559
     34 C         138.4528  143.2781  163.2416 C.ar    1  UNL1        0.2272
     35 N         138.3285  143.7382  161.8193 N.ar    1  UNL1       -0.1767
     36 C         140.0065  143.4500  158.4156 C.3     1  UNL1        0.2542
     37 O         138.7890  143.3742  159.2884 O.3     1  UNL1       -0.4561
     38 O         137.8681  144.1022  164.3503 O.3     1  UNL1       -0.4561
     39 C         138.7720  144.7995  165.3233 C.3     1  UNL1        0.2542
     40 C         139.3342  139.1131  162.1306 C.3     1  UNL1        0.0491
     41 C         138.4213  138.2849  162.9855 C.3     1  UNL1        0.0750
     42 N         138.5948  138.2733  164.4754 N.3     1  UNL1       -0.2702
     43 C         138.0278  139.3869  165.3052 C.3     1  UNL1        0.0897
     44 C         139.3352  137.1481  165.1356 C.3     1  UNL1        0.0897
@<TRIPOS>BOND
     1    36    37    1
     2    37    30    1
     3    30    31   ar
     4    31    32   ar
     5    32    27    1
     6    27    28    1
     7    27    40    1
     8    40    41    1
     9    41    42    1
    10    42    43    1
    11    42    44    1
    12    27     1    1
    13     1     2    1
    14     2     3   ar
    15     3     4   ar
    16     4     5   ar
    17     5     6   ar
    18     6     7    1
    19     6     8   ar
    20     8     9   ar
    21     9    10   ar
    22    10    11   ar
    23    11    12   ar
    24    12    13    1
    25    13    14    1
    26     1    15    1
    27    15    16   ar
    28    16    17   ar
    29    17    21    1
    30    21    22    1
    31    17    18   ar
    32    18    19   ar
    33    19    23    1
    34    23    24    1
    35    19    20   ar
    36    20    25    1
    37    25    26    1
    38    32    33   ar
    39    33    34   ar
    40    34    38    1
    41    38    39    1
    42    34    35   ar
    43    35    30   ar
    44    12     2   ar
    45    20    15   ar
    46    10     4   ar
    47    28    29    1
@<TRIPOS>MOLECULE
*****
 44 47 0 0 0
SMALL
GASTEIGER

@<TRIPOS>ATOM
      1 C         140.0284  141.4334  161.7289 C.3     1  UNL1        0.0809
      2 C         139.7504  140.9885  163.1342 C.ar    1  UNL1        0.0375
      3 C         140.5917  141.5036  164.2642 C.ar    1  UNL1        0.0023
      4 C         140.3138  141.0587  165.6695 C.ar    1  UNL1        0.0181
      5 C         141.1551  141.5738  166.7995 C.ar    1  UNL1        0.0082
      6 C         140.8772  141.1289  168.2048 C.ar    1  UNL1        0.0347
      7 BR        141.7185  141.6440  169.3348 Br      1  UNL1       -0.0490
      8 C         139.7580  140.1689  168.4800 C.ar    1  UNL1        0.0082
      9 C         138.9168  139.6537  167.3500 C.ar    1  UNL1        0.0197
     10 C         139.1946  140.0986  165.9448 C.ar    1  UNL1        0.0844
     11 N         138.3533  139.5835  164.8148 N.ar    1  UNL1       -0.2119
     12 C         138.6313  140.0285  163.4095 C.ar    1  UNL1        0.2211
     13 O         137.7900  139.5134  162.2795 O.3     1  UNL1       -0.4563
     14 C         137.8581  138.0656  161.8932 C.3     1  UNL1        0.2542
     15 C         140.3401  140.4190  160.6688 C.ar    1  UNL1        0.0276
     16 C         141.5266  139.5142  160.8223 C.ar    1  UNL1        0.0570
     17 C         141.8383  138.4998  159.7622 C.ar    1  UNL1        0.2274
     18 N         140.9635  138.3902  158.5486 N.ar    1  UNL1       -0.1741
     19 C         139.7770  139.2950  158.3951 C.ar    1  UNL1        0.2623
     20 C         139.4653  140.3095  159.4553 C.ar    1  UNL1        0.1881
     21 O         143.0248  137.5950  159.9157 O.3     1  UNL1       -0.4561
     22 C         143.9016  137.7070  161.1276 C.3     1  UNL1        0.2542
     23 O         138.9022  139.1855  157.1816 O.3     1  UNL1       -0.4540
     24 C         139.3656  138.3986  155.9916 C.3     1  UNL1        0.2543
     25 O         138.2788  141.2143  159.3018 O.3     1  UNL1       -0.4670
     26 C         138.2987  142.3100  158.2775 C.3     1  UNL1        0.2527
     27 C         139.9945  142.8928  161.3837 C.3     1  UNL1        0.1162
     28 O         138.5385  142.9435  161.7407 O.3     1  UNL1       -0.3820
     29 H         138.2041  143.8442  161.6072 H       1  UNL1        0.2107
     30 C         143.3333  142.9335  159.2388 C.ar    1  UNL1        0.2272
     31 C         141.8773  142.9842  159.5958 C.ar    1  UNL1        0.0559
     32 C         141.4506  142.8421  161.0267 C.ar    1  UNL1        0.0117
     33 C         142.4798  142.6492  162.1006 C.ar    1  UNL1        0.0559
     34 C         143.9358  142.5985  161.7436 C.ar    1  UNL1        0.2272
     35 N         144.3626  142.7407  160.3127 N.ar    1  UNL1       -0.1767
     36 C         144.7021  142.0771  157.2033 C.3     1  UNL1        0.2542
     37 O         143.7601  143.0757  157.8077 O.3     1  UNL1       -0.4561
     38 O         144.9651  142.4057  162.8177 O.3     1  UNL1       -0.4561
     39 C         144.5347  142.1469  164.2311 C.3     1  UNL1        0.2542
     40 C         139.9607  144.3521  161.0386 C.3     1  UNL1        0.0491
     41 C         139.6057  145.3631  162.0884 C.3     1  UNL1        0.0750
     42 N         140.0561  145.1629  163.5051 N.3     1  UNL1       -0.2702
     43 C         139.0558  144.8193  164.5686 C.3     1  UNL1        0.0897
     44 C         141.5070  145.3065  163.8582 C.3     1  UNL1        0.0897
@<TRIPOS>BOND
     1    36    37    1
     2    37    30    1
     3    30    31   ar
     4    31    32   ar
     5    32    27    1
     6    27    28    1
     7    27    40    1
     8    40    41    1
     9    41    42    1
    10    42    43    1
    11    42    44    1
    12    27     1    1
    13     1     2    1
    14     2     3   ar
    15     3     4   ar
    16     4     5   ar
    17     5     6   ar
    18     6     7    1
    19     6     8   ar
    20     8     9   ar
    21     9    10   ar
    22    10    11   ar
    23    11    12   ar
    24    12    13    1
    25    13    14    1
    26     1    15    1
    27    15    16   ar
    28    16    17   ar
    29    17    21    1
    30    21    22    1
    31    17    18   ar
    32    18    19   ar
    33    19    23    1
    34    23    24    1
    35    19    20   ar
    36    20    25    1
    37    25    26    1
    38    32    33   ar
    39    33    34   ar
    40    34    38    1
    41    38    39    1
    42    34    35   ar
    43    35    30   ar
    44    12     2   ar
    45    20    15   ar
    46    10     4   ar
    47    28    29    1
@<TRIPOS>MOLECULE
*****
 44 47 0 0 0
SMALL
GASTEIGER

@<TRIPOS>ATOM
      1 C         141.4517  141.6656  164.5823 C.3     1  UNL1        0.0809
      2 C         142.2402  141.8363  163.3177 C.ar    1  UNL1        0.0375
      3 C         141.9237  140.9947  162.1171 C.ar    1  UNL1        0.0023
      4 C         142.7121  141.1653  160.8525 C.ar    1  UNL1        0.0181
      5 C         142.3956  140.3237  159.6519 C.ar    1  UNL1        0.0082
      6 C         143.1841  140.4943  158.3873 C.ar    1  UNL1        0.0347
      7 BR        142.8675  139.6527  157.1867 Br      1  UNL1       -0.0490
      8 C         144.2891  141.5067  158.3233 C.ar    1  UNL1        0.0082
      9 C         144.6056  142.3483  159.5239 C.ar    1  UNL1        0.0197
     10 C         143.8172  142.1777  160.7885 C.ar    1  UNL1        0.0844
     11 N         144.1337  143.0193  161.9891 N.ar    1  UNL1       -0.2119
     12 C         143.3452  142.8486  163.2537 C.ar    1  UNL1        0.2211
     13 O         143.6617  143.6903  164.4543 O.3     1  UNL1       -0.4563
     14 C         143.7924  145.1780  164.3139 C.3     1  UNL1        0.2542
     15 C         142.0422  140.9148  165.7387 C.ar    1  UNL1        0.0276
     16 C         142.6182  139.5458  165.5286 C.ar    1  UNL1        0.0570
     17 C         143.2087  138.7950  166.6850 C.ar    1  UNL1        0.2274
     18 N         143.2232  139.4130  168.0518 N.ar    1  UNL1       -0.1741
     19 C         142.6471  140.7819  168.2619 C.ar    1  UNL1        0.2623
     20 C         142.0566  141.5328  167.1054 C.ar    1  UNL1        0.1881
     21 O         143.7848  137.4260  166.4749 O.3     1  UNL1       -0.4561
     22 C         144.8764  136.9256  167.3738 C.3     1  UNL1        0.2542
     23 O         142.6615  141.4000  169.6286 O.3     1  UNL1       -0.4540
     24 C         143.7360  142.3795  169.9973 C.3     1  UNL1        0.2543
     25 O         141.4805  142.9018  167.3155 O.3     1  UNL1       -0.4670
     26 C         140.3341  143.0956  168.2633 C.3     1  UNL1        0.2527
     27 C         140.0727  142.2458  164.6903 C.3     1  UNL1        0.1162
     28 O         140.6426  143.6263  164.5508 O.3     1  UNL1       -0.3820
     29 H         139.9246  144.2776  164.5867 H       1  UNL1        0.2107
     30 C         138.9013  138.5634  163.7862 C.ar    1  UNL1        0.2272
     31 C         139.4712  139.9439  163.6467 C.ar    1  UNL1        0.0559
     32 C         139.5028  140.8653  164.8298 C.ar    1  UNL1        0.0117
     33 C         138.9644  140.4063  166.1524 C.ar    1  UNL1        0.0559
     34 C         138.3945  139.0258  166.2919 C.ar    1  UNL1        0.2272
     35 N         138.3629  138.1044  165.1088 N.ar    1  UNL1       -0.1767
     36 C         139.3726  138.1142  161.2709 C.3     1  UNL1        0.2542
     37 O         138.8698  137.6419  162.6029 O.3     1  UNL1       -0.4561
     38 O         137.8561  138.5668  167.6147 O.3     1  UNL1       -0.4561
     39 C         136.8098  137.4932  167.6667 C.3     1  UNL1        0.2542
     40 C         138.6936  142.8261  164.7984 C.3     1  UNL1        0.0491
     41 C         138.2081  143.8027  163.7685 C.3     1  UNL1        0.0750
     42 N         138.6189  143.6465  162.3344 N.3     1  UNL1       -0.2702
     43 C         139.5766  144.6226  161.7180 C.3     1  UNL1        0.0897
     44 C         138.0719  142.5143  161.5165 C.3     1  UNL1        0.0897
@<TRIPOS>BOND
     1    36    37    1
     2    37    30    1
     3    30    31   ar
     4    31    32   ar
     5    32    27    1
     6    27    28    1
     7    27    40    1
     8    40    41    1
     9    41    42    1
    10    42    43    1
    11    42    44    1
    12    27     1    1
    13     1     2    1
    14     2     3   ar
    15     3     4   ar
    16     4     5   ar
    17     5     6   ar
    18     6     7    1
    19     6     8   ar
    20     8     9   ar
    21     9    10   ar
    22    10    11   ar
    23    11    12   ar
    24    12    13    1
    25    13    14    1
    26     1    15    1
    27    15    16   ar
    28    16    17   ar
    29    17    21    1
    30    21    22    1
    31    17    18   ar
    32    18    19   ar
    33    19    23    1
    34    23    24    1
    35    19    20   ar
    36    20    25    1
    37    25    26    1
    38    32    33   ar
    39    33    34   ar
    40    34    38    1
    41    38    39    1
    42    34    35   ar
    43    35    30   ar
    44    12     2   ar
    45    20    15   ar
    46    10     4   ar
    47    28    29    1
@<TRIPOS>MOLECULE
*****
 44 47 0 0 0
SMALL
GASTEIGER

@<TRIPOS>ATOM
      1 C         140.1491  141.4663  161.7983 C.3     1  UNL1        0.0809
      2 C         139.9327  141.0622  163.2266 C.ar    1  UNL1        0.0375
      3 C         140.8272  141.6024  164.3027 C.ar    1  UNL1        0.0023
      4 C         140.6108  141.1984  165.7309 C.ar    1  UNL1        0.0181
      5 C         141.5054  141.7385  166.8070 C.ar    1  UNL1        0.0082
      6 C         141.2890  141.3345  168.2353 C.ar    1  UNL1        0.0347
      7 BR        142.1836  141.8746  169.3113 Br      1  UNL1       -0.0490
      8 C         140.1780  140.3902  168.5874 C.ar    1  UNL1        0.0082
      9 C         139.2834  139.8500  167.5114 C.ar    1  UNL1        0.0197
     10 C         139.4998  140.2541  166.0832 C.ar    1  UNL1        0.0844
     11 N         138.6052  139.7139  165.0071 N.ar    1  UNL1       -0.2119
     12 C         138.8217  140.1180  163.5788 C.ar    1  UNL1        0.2211
     13 O         137.9271  139.5778  162.5027 O.3     1  UNL1       -0.4563
     14 C         137.9935  138.1262  162.1307 C.3     1  UNL1        0.2542
     15 C         140.4108  140.4212  160.7547 C.ar    1  UNL1        0.0276
     16 C         141.5868  139.5005  160.8936 C.ar    1  UNL1        0.0570
     17 C         141.8485  138.4554  159.8499 C.ar    1  UNL1        0.2274
     18 N         140.9342  138.3311  158.6672 N.ar    1  UNL1       -0.1741
     19 C         139.7582  139.2518  158.5283 C.ar    1  UNL1        0.2623
     20 C         139.4965  140.2969  159.5721 C.ar    1  UNL1        0.1881
     21 O         143.0245  137.5347  159.9888 O.3     1  UNL1       -0.4561
     22 C         144.0027  137.7312  161.1089 C.3     1  UNL1        0.2542
     23 O         138.8439  139.1275  157.3457 O.3     1  UNL1       -0.4540
     24 C         139.4049  139.1777  155.9555 C.3     1  UNL1        0.2543
     25 O         138.3205  141.2177  159.4332 O.3     1  UNL1       -0.4670
     26 C         138.3225  142.2827  158.3768 C.3     1  UNL1        0.2527
     27 C         140.1038  142.9155  161.4138 C.3     1  UNL1        0.1162
     28 O         138.6800  142.9944  161.8791 O.3     1  UNL1       -0.3820
     29 H         138.3455  143.8950  161.7449 H       1  UNL1        0.2107
     30 C         144.0503  142.5006  161.4716 C.ar    1  UNL1        0.2272
     31 C         142.6265  142.5796  161.9368 C.ar    1  UNL1        0.0559
     32 C         141.5277  142.8365  160.9486 C.ar    1  UNL1        0.0117
     33 C         141.8528  143.0144  159.4951 C.ar    1  UNL1        0.0559
     34 C         143.2766  142.9355  159.0299 C.ar    1  UNL1        0.2272
     35 N         144.3754  142.6786  160.0181 N.ar    1  UNL1       -0.1767
     36 C         145.0499  141.0849  163.4073 C.3     1  UNL1        0.2542
     37 O         145.1491  142.2437  162.4599 O.3     1  UNL1       -0.4561
     38 O         143.6017  143.1134  157.5764 O.3     1  UNL1       -0.4561
     39 C         142.5076  143.4106  156.5941 C.3     1  UNL1        0.2542
     40 C         140.0586  144.3646  161.0293 C.3     1  UNL1        0.0491
     41 C         139.8101  145.4107  162.0753 C.3     1  UNL1        0.0750
     42 N         140.2948  145.1979  163.4788 N.3     1  UNL1       -0.2702
     43 C         141.7583  145.3017  163.7907 C.3     1  UNL1        0.0897
     44 C         139.3159  144.8814  164.5705 C.3     1  UNL1        0.0897
@<TRIPOS>BOND
     1    36    37    1
     2    37    30    1
     3    30    31   ar
     4    31    32   ar
     5    32    27    1
     6    27    28    1
     7    27    40    1
     8    40    41    1
     9    41    42    1
    10    42    43    1
    11    42    44    1
    12    27     1    1
    13     1     2    1
    14     2     3   ar
    15     3     4   ar
    16     4     5   ar
    17     5     6   ar
    18     6     7    1
    19     6     8   ar
    20     8     9   ar
    21     9    10   ar
    22    10    11   ar
    23    11    12   ar
    24    12    13    1
    25    13    14    1
    26     1    15    1
    27    15    16   ar
    28    16    17   ar
    29    17    21    1
    30    21    22    1
    31    17    18   ar
    32    18    19   ar
    33    19    23    1
    34    23    24    1
    35    19    20   ar
    36    20    25    1
    37    25    26    1
    38    32    33   ar
    39    33    34   ar
    40    34    38    1
    41    38    39    1
    42    34    35   ar
    43    35    30   ar
    44    12     2   ar
    45    20    15   ar
    46    10     4   ar
    47    28    29    1
