@<TRIPOS>MOLECULE
*****
 32 36 0 0 0
SMALL
GASTEIGER

@<TRIPOS>ATOM
      1 N         140.9118  141.6081  167.7999 N.ar    1  UNL1       -0.2315
      2 N         141.1748  142.6518  166.7552 N.ar    1  UNL1       -0.1678
      3 C         140.2582  142.3896  165.5971 C.ar    1  UNL1        0.1065
      4 C         139.4288  141.1839  165.9261 C.ar    1  UNL1        0.0860
      5 C         138.3579  140.4634  165.1619 C.ar    1  UNL1        0.1316
      6 N         137.9539  140.9464  163.8005 N.pl3   1  UNL1       -0.3425
      7 N         137.6909  139.2598  165.7592 N.ar    1  UNL1       -0.2093
      8 C         138.0948  138.7768  167.1206 C.ar    1  UNL1        0.2014
      9 N         139.1658  139.4974  167.8848 N.ar    1  UNL1       -0.2050
     10 C         139.8327  140.7008  167.2876 C.ar    1  UNL1        0.1654
     11 H         138.3917  141.7363  163.4086 H       1  UNL1        0.1437
     12 H         137.2511  140.4735  163.2989 H       1  UNL1        0.1437
     13 C         140.1841  143.1922  164.3320 C.ar    1  UNL1        0.0196
     14 C         139.2406  144.3543  164.2353 C.ar    1  UNL1        0.0031
     15 C         139.1664  145.1568  162.9703 C.ar    1  UNL1        0.0193
     16 C         140.0359  144.7974  161.8020 C.ar    1  UNL1        0.0844
     17 N         139.9617  145.6000  160.5369 N.ar    1  UNL1       -0.2117
     18 C         140.8311  145.2406  159.3686 C.ar    1  UNL1        0.2247
     19 C         141.7747  144.0785  159.4654 C.ar    1  UNL1        0.0577
     20 C         141.8488  143.2759  160.7304 C.ar    1  UNL1        0.0063
     21 C         140.9794  143.6354  161.8987 C.ar    1  UNL1        0.0180
     22 C         141.0535  142.8328  163.1637 C.ar    1  UNL1        0.0031
     23 O         140.7570  146.0432  158.1036 O.3     1  UNL1       -0.4640
     24 C         139.9621  145.5340  156.9378 C.3     1  UNL1        0.1678
     25 C         139.2935  145.7751  155.6169 C.3     1  UNL1        0.0473
     26 C         139.2540  144.4111  156.2396 C.3     1  UNL1        0.0473
     27 C         141.6061  141.4920  169.1245 C.3     1  UNL1        0.1557
     28 C         140.6225  143.1093  170.0819 C.3     1  UNL1        0.0314
     29 C         142.0540  142.7276  169.8474 C.3     1  UNL1        0.1110
     30 C         143.4855  142.3459  169.6129 C.3     1  UNL1        0.0314
     31 O         142.5019  143.9632  170.5703 O.3     1  UNL1       -0.3848
     32 H         141.9177  144.7025  170.3396 H       1  UNL1        0.2103
@<TRIPOS>BOND
     1    28    29    1
     2    29    30    1
     3    29    31    1
     4    29    27    1
     5    27     1    1
     6     1     2   ar
     7     2     3   ar
     8     3    13    1
     9    13    14   ar
    10    14    15   ar
    11    15    16   ar
    12    16    17   ar
    13    17    18   ar
    14    18    23    1
    15    23    24    1
    16    24    25    1
    17    25    26    1
    18    18    19   ar
    19    19    20   ar
    20    20    21   ar
    21    21    22   ar
    22     3     4   ar
    23     4     5   ar
    24     5     6    1
    25     5     7   ar
    26     7     8   ar
    27     8     9   ar
    28     9    10   ar
    29    10     1   ar
    30    22    13   ar
    31    10     4   ar
    32    21    16   ar
    33    26    24    1
    34    31    32    1
    35     6    11    1
    36     6    12    1
@<TRIPOS>MOLECULE
*****
 32 36 0 0 0
SMALL
GASTEIGER

@<TRIPOS>ATOM
      1 N         140.8249  141.4991  168.0543 N.ar    1  UNL1       -0.2315
      2 N         141.4687  142.3249  166.9803 N.ar    1  UNL1       -0.1678
      3 C         140.8790  141.9141  165.6637 C.ar    1  UNL1        0.1065
      4 C         139.8707  140.8345  165.9240 C.ar    1  UNL1        0.0860
      5 C         138.9787  140.0518  165.0065 C.ar    1  UNL1        0.1316
      6 N         139.0122  140.3083  163.5290 N.pl3   1  UNL1       -0.3425
      7 N         138.0533  139.0126  165.5666 N.ar    1  UNL1       -0.2093
      8 C         138.0198  138.7561  167.0441 C.ar    1  UNL1        0.2014
      9 N         138.9119  139.5388  167.9615 N.ar    1  UNL1       -0.2050
     10 C         139.8372  140.5780  167.4015 C.ar    1  UNL1        0.1654
     11 H         139.6196  140.9904  163.1614 H       1  UNL1        0.1437
     12 H         138.4268  139.7946  162.9268 H       1  UNL1        0.1437
     13 C         141.2350  142.4831  164.3221 C.ar    1  UNL1        0.0196
     14 C         142.4423  141.9776  163.5895 C.ar    1  UNL1        0.0031
     15 C         142.7983  142.5466  162.2481 C.ar    1  UNL1        0.0193
     16 C         141.9470  143.6211  161.6393 C.ar    1  UNL1        0.0844
     17 N         142.3030  144.1901  160.2978 N.ar    1  UNL1       -0.2117
     18 C         141.4517  145.2646  159.6890 C.ar    1  UNL1        0.2247
     19 C         140.2443  145.7701  160.4217 C.ar    1  UNL1        0.0577
     20 C         139.8883  145.2011  161.7631 C.ar    1  UNL1        0.0063
     21 C         140.7397  144.1266  162.3719 C.ar    1  UNL1        0.0180
     22 C         140.3837  143.5576  163.7133 C.ar    1  UNL1        0.0031
     23 O         141.8077  145.8336  158.3475 O.3     1  UNL1       -0.4640
     24 C         140.7676  145.9215  157.2701 C.3     1  UNL1        0.1678
     25 C         139.7221  146.7064  156.5347 C.3     1  UNL1        0.0473
     26 C         140.0119  145.2887  156.1395 C.3     1  UNL1        0.0473
     27 C         141.1173  141.5802  169.5233 C.3     1  UNL1        0.1557
     28 C         140.6393  143.5758  170.0610 C.3     1  UNL1        0.0314
     29 C         141.8879  142.7446  170.0715 C.3     1  UNL1        0.1110
     30 C         143.1365  141.9134  170.0819 C.3     1  UNL1        0.0314
     31 O         142.6584  143.9090  170.6196 O.3     1  UNL1       -0.3848
     32 H         142.3539  144.7266  170.1957 H       1  UNL1        0.2103
@<TRIPOS>BOND
     1    28    29    1
     2    29    30    1
     3    29    31    1
     4    29    27    1
     5    27     1    1
     6     1     2   ar
     7     2     3   ar
     8     3    13    1
     9    13    14   ar
    10    14    15   ar
    11    15    16   ar
    12    16    17   ar
    13    17    18   ar
    14    18    23    1
    15    23    24    1
    16    24    25    1
    17    25    26    1
    18    18    19   ar
    19    19    20   ar
    20    20    21   ar
    21    21    22   ar
    22     3     4   ar
    23     4     5   ar
    24     5     6    1
    25     5     7   ar
    26     7     8   ar
    27     8     9   ar
    28     9    10   ar
    29    10     1   ar
    30    22    13   ar
    31    10     4   ar
    32    21    16   ar
    33    26    24    1
    34    31    32    1
    35     6    11    1
    36     6    12    1
@<TRIPOS>MOLECULE
*****
 32 36 0 0 0
SMALL
GASTEIGER

@<TRIPOS>ATOM
      1 N         141.3775  140.6668  167.6741 N.ar    1  UNL1       -0.2315
      2 N         142.3232  140.7057  166.5104 N.ar    1  UNL1       -0.1678
      3 C         141.6846  139.9709  165.3693 C.ar    1  UNL1        0.1065
      4 C         140.3442  139.4777  165.8277 C.ar    1  UNL1        0.0860
      5 C         139.2720  138.6927  165.1320 C.ar    1  UNL1        0.1316
      6 N         139.4618  138.2626  163.7076 N.pl3   1  UNL1       -0.3425
      7 N         138.0099  138.3376  165.8608 N.ar    1  UNL1       -0.2093
      8 C         137.8200  138.7677  167.2852 C.ar    1  UNL1        0.2014
      9 N         138.8923  139.5528  167.9808 N.ar    1  UNL1       -0.2050
     10 C         140.1543  139.9078  167.2521 C.ar    1  UNL1        0.1654
     11 H         140.2902  138.4956  163.2293 H       1  UNL1        0.1437
     12 H         138.7581  137.7473  163.2510 H       1  UNL1        0.1437
     13 C         142.2816  139.7652  164.0086 C.ar    1  UNL1        0.0196
     14 C         142.9335  138.4586  163.6653 C.ar    1  UNL1        0.0031
     15 C         143.5305  138.2530  162.3047 C.ar    1  UNL1        0.0193
     16 C         143.4756  139.3540  161.2874 C.ar    1  UNL1        0.0844
     17 N         144.0726  139.1483  159.9267 N.ar    1  UNL1       -0.2117
     18 C         144.0177  140.2493  158.9095 C.ar    1  UNL1        0.2247
     19 C         143.3658  141.5559  159.2528 C.ar    1  UNL1        0.0577
     20 C         142.7688  141.7615  160.6134 C.ar    1  UNL1        0.0063
     21 C         142.8237  140.6606  161.6307 C.ar    1  UNL1        0.0180
     22 C         142.2268  140.8662  162.9913 C.ar    1  UNL1        0.0031
     23 O         144.6147  140.0437  157.5488 O.3     1  UNL1       -0.4640
     24 C         145.2545  141.1937  156.8289 C.3     1  UNL1        0.1678
     25 C         145.1346  142.4141  155.9650 C.3     1  UNL1        0.0473
     26 C         146.4826  141.9651  156.4460 C.3     1  UNL1        0.0473
     27 C         141.6134  141.2792  169.0229 C.3     1  UNL1        0.1557
     28 C         143.4695  142.0509  169.7006 C.3     1  UNL1        0.0314
     29 C         142.7198  140.7664  169.8962 C.3     1  UNL1        0.1110
     30 C         141.9702  139.4820  170.0919 C.3     1  UNL1        0.0314
     31 O         143.8263  140.2537  170.7696 O.3     1  UNL1       -0.3848
     32 H         144.6813  140.5273  170.4023 H       1  UNL1        0.2103
@<TRIPOS>BOND
     1    28    29    1
     2    29    30    1
     3    29    31    1
     4    29    27    1
     5    27     1    1
     6     1     2   ar
     7     2     3   ar
     8     3    13    1
     9    13    14   ar
    10    14    15   ar
    11    15    16   ar
    12    16    17   ar
    13    17    18   ar
    14    18    23    1
    15    23    24    1
    16    24    25    1
    17    25    26    1
    18    18    19   ar
    19    19    20   ar
    20    20    21   ar
    21    21    22   ar
    22     3     4   ar
    23     4     5   ar
    24     5     6    1
    25     5     7   ar
    26     7     8   ar
    27     8     9   ar
    28     9    10   ar
    29    10     1   ar
    30    22    13   ar
    31    10     4   ar
    32    21    16   ar
    33    26    24    1
    34    31    32    1
    35     6    11    1
    36     6    12    1
@<TRIPOS>MOLECULE
*****
 32 36 0 0 0
SMALL
GASTEIGER

@<TRIPOS>ATOM
      1 N         142.1204  142.5477  163.3628 N.ar    1  UNL1       -0.2315
      2 N         140.8323  142.2143  164.0552 N.ar    1  UNL1       -0.1678
      3 C         141.0584  140.9889  164.8901 C.ar    1  UNL1        0.1065
      4 C         142.4864  140.5649  164.7137 C.ar    1  UNL1        0.0860
      5 C         143.2738  139.4260  165.2907 C.ar    1  UNL1        0.1316
      6 N         142.6174  138.4626  166.2347 N.pl3   1  UNL1       -0.3425
      7 N         144.7176  139.2505  164.9238 N.ar    1  UNL1       -0.2093
      8 C         145.3740  140.2138  163.9798 C.ar    1  UNL1        0.2014
      9 N         144.5865  141.3527  163.4028 N.ar    1  UNL1       -0.2050
     10 C         143.1428  141.5282  163.7698 C.ar    1  UNL1        0.1654
     11 H         141.6698  138.5778  166.4755 H       1  UNL1        0.1437
     12 H         143.1342  137.7151  166.6134 H       1  UNL1        0.1437
     13 C         140.0361  140.3071  165.7505 C.ar    1  UNL1        0.0196
     14 C         139.0997  139.3016  165.1487 C.ar    1  UNL1        0.0031
     15 C         138.0775  138.6199  166.0090 C.ar    1  UNL1        0.0193
     16 C         137.9916  138.9437  167.4711 C.ar    1  UNL1        0.0844
     17 N         136.9692  138.2619  168.3314 N.ar    1  UNL1       -0.2117
     18 C         136.8833  138.5857  169.7936 C.ar    1  UNL1        0.2247
     19 C         137.8197  139.5912  170.3953 C.ar    1  UNL1        0.0577
     20 C         138.8420  140.2730  169.5350 C.ar    1  UNL1        0.0063
     21 C         138.9279  139.9492  168.0729 C.ar    1  UNL1        0.0180
     22 C         139.9502  140.6309  167.2126 C.ar    1  UNL1        0.0031
     23 O         135.8611  137.9040  170.6539 O.3     1  UNL1       -0.4640
     24 C         136.2363  137.4183  172.0226 C.3     1  UNL1        0.1678
     25 C         135.8457  137.0556  173.4247 C.3     1  UNL1        0.0473
     26 C         137.2769  136.9397  172.9911 C.3     1  UNL1        0.0473
     27 C         142.3466  143.6984  162.4276 C.3     1  UNL1        0.1557
     28 C         142.3716  145.3284  163.7849 C.3     1  UNL1        0.0314
     29 C         141.5508  144.9602  162.5846 C.3     1  UNL1        0.1110
     30 C         140.7300  144.5919  161.3844 C.3     1  UNL1        0.0314
     31 O         140.7550  146.2219  162.7417 O.3     1  UNL1       -0.3848
     32 H         140.5981  146.3900  163.6841 H       1  UNL1        0.2103
@<TRIPOS>BOND
     1    28    29    1
     2    29    30    1
     3    29    31    1
     4    29    27    1
     5    27     1    1
     6     1     2   ar
     7     2     3   ar
     8     3    13    1
     9    13    14   ar
    10    14    15   ar
    11    15    16   ar
    12    16    17   ar
    13    17    18   ar
    14    18    23    1
    15    23    24    1
    16    24    25    1
    17    25    26    1
    18    18    19   ar
    19    19    20   ar
    20    20    21   ar
    21    21    22   ar
    22     3     4   ar
    23     4     5   ar
    24     5     6    1
    25     5     7   ar
    26     7     8   ar
    27     8     9   ar
    28     9    10   ar
    29    10     1   ar
    30    22    13   ar
    31    10     4   ar
    32    21    16   ar
    33    26    24    1
    34    31    32    1
    35     6    11    1
    36     6    12    1
@<TRIPOS>MOLECULE
*****
 32 36 0 0 0
SMALL
GASTEIGER

@<TRIPOS>ATOM
      1 N         140.9356  142.3995  164.0049 N.ar    1  UNL1       -0.2315
      2 N         141.5988  141.9138  162.7503 N.ar    1  UNL1       -0.1678
      3 C         141.1811  140.4907  162.5262 C.ar    1  UNL1        0.1065
      4 C         140.2596  140.0968  163.6424 C.ar    1  UNL1        0.0860
      5 C         139.5392  138.8164  163.9446 C.ar    1  UNL1        0.1316
      6 N         139.6909  137.6367  163.0307 N.pl3   1  UNL1       -0.3425
      7 N         138.6669  138.7156  165.1608 N.ar    1  UNL1       -0.2093
      8 C         138.5151  139.8953  166.0747 C.ar    1  UNL1        0.2014
      9 N         139.2357  141.1758  165.7724 N.ar    1  UNL1       -0.2050
     10 C         140.1079  141.2765  164.5563 C.ar    1  UNL1        0.1654
     11 H         140.2634  137.7028  162.2325 H       1  UNL1        0.1437
     12 H         139.2181  136.7963  163.2290 H       1  UNL1        0.1437
     13 C         141.6096  139.6151  161.3861 C.ar    1  UNL1        0.0196
     14 C         142.9482  138.9392  161.4215 C.ar    1  UNL1        0.0031
     15 C         143.3766  138.0636  160.2814 C.ar    1  UNL1        0.0193
     16 C         142.4664  137.8640  159.1059 C.ar    1  UNL1        0.0844
     17 N         142.8949  136.9884  157.9658 N.ar    1  UNL1       -0.2117
     18 C         141.9847  136.7887  156.7903 C.ar    1  UNL1        0.2247
     19 C         140.6460  137.4647  156.7550 C.ar    1  UNL1        0.0577
     20 C         140.2176  138.3402  157.8951 C.ar    1  UNL1        0.0063
     21 C         141.1278  138.5399  159.0705 C.ar    1  UNL1        0.0180
     22 C         140.6994  139.4154  160.2106 C.ar    1  UNL1        0.0031
     23 O         142.4131  135.9132  155.6503 O.3     1  UNL1       -0.4640
     24 C         142.2277  134.4270  155.7351 C.3     1  UNL1        0.1678
     25 C         141.5454  133.1744  155.2710 C.3     1  UNL1        0.0473
     26 C         142.5890  133.1057  156.3462 C.3     1  UNL1        0.0473
     27 C         141.0754  143.7679  164.6032 C.3     1  UNL1        0.1557
     28 C         142.4718  145.1679  163.8352 C.3     1  UNL1        0.0314
     29 C         140.9873  144.9821  163.7270 C.3     1  UNL1        0.1110
     30 C         139.5028  144.7964  163.6188 C.3     1  UNL1        0.0314
     31 O         140.8992  146.1964  162.8508 O.3     1  UNL1       -0.3848
     32 H         141.5070  146.8771  163.1795 H       1  UNL1        0.2103
@<TRIPOS>BOND
     1    28    29    1
     2    29    30    1
     3    29    31    1
     4    29    27    1
     5    27     1    1
     6     1     2   ar
     7     2     3   ar
     8     3    13    1
     9    13    14   ar
    10    14    15   ar
    11    15    16   ar
    12    16    17   ar
    13    17    18   ar
    14    18    23    1
    15    23    24    1
    16    24    25    1
    17    25    26    1
    18    18    19   ar
    19    19    20   ar
    20    20    21   ar
    21    21    22   ar
    22     3     4   ar
    23     4     5   ar
    24     5     6    1
    25     5     7   ar
    26     7     8   ar
    27     8     9   ar
    28     9    10   ar
    29    10     1   ar
    30    22    13   ar
    31    10     4   ar
    32    21    16   ar
    33    26    24    1
    34    31    32    1
    35     6    11    1
    36     6    12    1
@<TRIPOS>MOLECULE
*****
 32 36 0 0 0
SMALL
GASTEIGER

@<TRIPOS>ATOM
      1 N         143.5692  143.0555  158.2089 N.ar    1  UNL1       -0.2315
      2 N         144.0522  142.6597  159.5728 N.ar    1  UNL1       -0.1678
      3 C         143.1331  143.2743  160.5864 C.ar    1  UNL1        0.1065
      4 C         142.0820  144.0499  159.8491 C.ar    1  UNL1        0.0860
      5 C         140.9144  144.8618  160.3258 C.ar    1  UNL1        0.1316
      6 N         140.6449  144.9970  161.7952 N.pl3   1  UNL1       -0.3425
      7 N         140.0162  145.5385  159.3332 N.ar    1  UNL1       -0.2093
      8 C         140.2856  145.4033  157.8638 C.ar    1  UNL1        0.2014
      9 N         141.4534  144.5913  157.3871 N.ar    1  UNL1       -0.2050
     10 C         142.3515  143.9147  158.3797 C.ar    1  UNL1        0.1654
     11 H         141.2344  144.5529  162.4467 H       1  UNL1        0.1437
     12 H         139.8785  145.5299  162.1081 H       1  UNL1        0.1437
     13 C         143.2453  143.1373  162.0760 C.ar    1  UNL1        0.0196
     14 C         144.0158  144.1528  162.8666 C.ar    1  UNL1        0.0031
     15 C         144.1280  144.0158  164.3561 C.ar    1  UNL1        0.0193
     16 C         143.4697  142.8633  165.0549 C.ar    1  UNL1        0.0844
     17 N         143.5820  142.7263  166.5445 N.ar    1  UNL1       -0.2117
     18 C         142.9237  141.5738  167.2434 C.ar    1  UNL1        0.2247
     19 C         142.1532  140.5583  166.4527 C.ar    1  UNL1        0.0577
     20 C         142.0410  140.6953  164.9632 C.ar    1  UNL1        0.0063
     21 C         142.6993  141.8478  164.2643 C.ar    1  UNL1        0.0180
     22 C         142.5871  141.9848  162.7749 C.ar    1  UNL1        0.0031
     23 O         143.0359  141.4368  168.7329 O.3     1  UNL1       -0.4640
     24 C         142.4084  140.2648  169.4276 C.3     1  UNL1        0.1678
     25 C         142.5187  138.8834  170.0018 C.3     1  UNL1        0.0473
     26 C         141.2111  139.6162  170.0569 C.3     1  UNL1        0.0473
     27 C         144.1941  142.6613  156.9035 C.3     1  UNL1        0.1557
     28 C         143.5908  140.6317  156.7740 C.3     1  UNL1        0.0314
     29 C         144.9086  141.3481  156.7803 C.3     1  UNL1        0.1110
     30 C         146.2264  142.0646  156.7865 C.3     1  UNL1        0.0314
     31 O         145.6231  140.0350  156.6570 O.3     1  UNL1       -0.3848
     32 H         145.1743  139.3703  157.2025 H       1  UNL1        0.2103
@<TRIPOS>BOND
     1    28    29    1
     2    29    30    1
     3    29    31    1
     4    29    27    1
     5    27     1    1
     6     1     2   ar
     7     2     3   ar
     8     3    13    1
     9    13    14   ar
    10    14    15   ar
    11    15    16   ar
    12    16    17   ar
    13    17    18   ar
    14    18    23    1
    15    23    24    1
    16    24    25    1
    17    25    26    1
    18    18    19   ar
    19    19    20   ar
    20    20    21   ar
    21    21    22   ar
    22     3     4   ar
    23     4     5   ar
    24     5     6    1
    25     5     7   ar
    26     7     8   ar
    27     8     9   ar
    28     9    10   ar
    29    10     1   ar
    30    22    13   ar
    31    10     4   ar
    32    21    16   ar
    33    26    24    1
    34    31    32    1
    35     6    11    1
    36     6    12    1
@<TRIPOS>MOLECULE
*****
 32 36 0 0 0
SMALL
GASTEIGER

@<TRIPOS>ATOM
      1 N         141.9387  141.6114  167.6950 N.ar    1  UNL1       -0.2315
      2 N         141.6629  142.6608  166.6593 N.ar    1  UNL1       -0.1678
      3 C         142.1518  142.1473  165.3375 C.ar    1  UNL1        0.1065
      4 C         142.7298  140.7805  165.5562 C.ar    1  UNL1        0.0860
      5 C         143.3590  139.7948  164.6169 C.ar    1  UNL1        0.1316
      6 N         143.4907  140.1261  163.1599 N.pl3   1  UNL1       -0.3425
      7 N         143.8566  138.4778  165.1346 N.ar    1  UNL1       -0.2093
      8 C         143.7249  138.1465  166.5916 C.ar    1  UNL1        0.2014
      9 N         143.0956  139.1324  167.5309 N.ar    1  UNL1       -0.2050
     10 C         142.5981  140.4493  167.0132 C.ar    1  UNL1        0.1654
     11 H         143.1642  140.9905  162.8201 H       1  UNL1        0.1437
     12 H         143.9037  139.4791  162.5433 H       1  UNL1        0.1437
     13 C         142.0761  142.8732  164.0270 C.ar    1  UNL1        0.0196
     14 C         143.1462  143.8544  163.6501 C.ar    1  UNL1        0.0031
     15 C         143.0704  144.5802  162.3396 C.ar    1  UNL1        0.0193
     16 C         141.9245  144.3248  161.4060 C.ar    1  UNL1        0.0844
     17 N         141.8488  145.0507  160.0954 N.ar    1  UNL1       -0.2117
     18 C         140.7028  144.7953  159.1618 C.ar    1  UNL1        0.2247
     19 C         139.6326  143.8141  159.5388 C.ar    1  UNL1        0.0577
     20 C         139.7084  143.0883  160.8493 C.ar    1  UNL1        0.0063
     21 C         140.8543  143.3437  161.7829 C.ar    1  UNL1        0.0180
     22 C         140.9301  142.6179  163.0933 C.ar    1  UNL1        0.0031
     23 O         140.6270  145.5212  157.8513 O.3     1  UNL1       -0.4640
     24 C         140.0004  144.8569  156.6612 C.3     1  UNL1        0.1678
     25 C         140.1281  144.0135  155.4274 C.3     1  UNL1        0.0473
     26 C         138.7876  144.5500  155.8338 C.3     1  UNL1        0.0473
     27 C         141.6124  141.7072  169.1560 C.3     1  UNL1        0.1557
     28 C         140.7652  143.4749  169.9669 C.3     1  UNL1        0.0314
     29 C         142.1321  142.8572  169.9667 C.3     1  UNL1        0.1110
     30 C         143.4990  142.2396  169.9665 C.3     1  UNL1        0.0314
     31 O         142.6519  144.0072  170.7774 O.3     1  UNL1       -0.3848
     32 H         142.2457  144.8315  170.4668 H       1  UNL1        0.2103
@<TRIPOS>BOND
     1    28    29    1
     2    29    30    1
     3    29    31    1
     4    29    27    1
     5    27     1    1
     6     1     2   ar
     7     2     3   ar
     8     3    13    1
     9    13    14   ar
    10    14    15   ar
    11    15    16   ar
    12    16    17   ar
    13    17    18   ar
    14    18    23    1
    15    23    24    1
    16    24    25    1
    17    25    26    1
    18    18    19   ar
    19    19    20   ar
    20    20    21   ar
    21    21    22   ar
    22     3     4   ar
    23     4     5   ar
    24     5     6    1
    25     5     7   ar
    26     7     8   ar
    27     8     9   ar
    28     9    10   ar
    29    10     1   ar
    30    22    13   ar
    31    10     4   ar
    32    21    16   ar
    33    26    24    1
    34    31    32    1
    35     6    11    1
    36     6    12    1
@<TRIPOS>MOLECULE
*****
 32 36 0 0 0
SMALL
GASTEIGER

@<TRIPOS>ATOM
      1 N         138.6060  142.9803  157.8797 N.ar    1  UNL1       -0.2315
      2 N         138.3468  142.6698  159.3241 N.ar    1  UNL1       -0.1678
      3 C         139.3507  143.4214  160.1472 C.ar    1  UNL1        0.1065
      4 C         140.2303  144.1964  159.2115 C.ar    1  UNL1        0.0860
      5 C         141.3909  145.1151  159.4544 C.ar    1  UNL1        0.1316
      6 N         141.8511  145.3876  160.8558 N.pl3   1  UNL1       -0.3425
      7 N         142.0913  145.7612  158.2960 N.ar    1  UNL1       -0.2093
      8 C         141.6311  145.4887  156.8946 C.ar    1  UNL1        0.2014
      9 N         140.4705  144.5699  156.6517 N.ar    1  UNL1       -0.2050
     10 C         139.7701  143.9238  157.8101 C.ar    1  UNL1        0.1654
     11 H         141.3914  144.9635  161.6161 H       1  UNL1        0.1437
     12 H         142.6128  145.9906  161.0153 H       1  UNL1        0.1437
     13 C         139.4564  143.4014  161.6434 C.ar    1  UNL1        0.0196
     14 C         138.4734  144.1709  162.4750 C.ar    1  UNL1        0.0031
     15 C         138.5792  144.1510  163.9711 C.ar    1  UNL1        0.0193
     16 C         139.6678  143.3615  164.6356 C.ar    1  UNL1        0.0844
     17 N         139.7735  143.3416  166.1318 N.ar    1  UNL1       -0.2117
     18 C         140.8622  142.5521  166.7963 C.ar    1  UNL1        0.2247
     19 C         141.8452  141.7825  165.9646 C.ar    1  UNL1        0.0577
     20 C         141.7394  141.8025  164.4685 C.ar    1  UNL1        0.0063
     21 C         140.6508  142.5920  163.8040 C.ar    1  UNL1        0.0180
     22 C         140.5450  142.6120  162.3079 C.ar    1  UNL1        0.0031
     23 O         140.9679  142.5321  168.2924 O.3     1  UNL1       -0.4640
     24 C         142.2311  142.0591  168.9488 C.3     1  UNL1        0.1678
     25 C         143.6260  142.3306  169.4289 C.3     1  UNL1        0.0473
     26 C         143.0239  140.9682  169.6055 C.3     1  UNL1        0.0473
     27 C         137.8363  142.4419  156.7102 C.3     1  UNL1        0.1557
     28 C         139.2688  140.9608  156.2061 C.3     1  UNL1        0.0314
     29 C         137.7903  140.9638  156.4591 C.3     1  UNL1        0.1110
     30 C         136.3118  140.9669  156.7120 C.3     1  UNL1        0.0314
     31 O         137.7442  139.4858  156.2079 O.3     1  UNL1       -0.3848
     32 H         138.3379  139.2639  155.4736 H       1  UNL1        0.2103
@<TRIPOS>BOND
     1    28    29    1
     2    29    30    1
     3    29    31    1
     4    29    27    1
     5    27     1    1
     6     1     2   ar
     7     2     3   ar
     8     3    13    1
     9    13    14   ar
    10    14    15   ar
    11    15    16   ar
    12    16    17   ar
    13    17    18   ar
    14    18    23    1
    15    23    24    1
    16    24    25    1
    17    25    26    1
    18    18    19   ar
    19    19    20   ar
    20    20    21   ar
    21    21    22   ar
    22     3     4   ar
    23     4     5   ar
    24     5     6    1
    25     5     7   ar
    26     7     8   ar
    27     8     9   ar
    28     9    10   ar
    29    10     1   ar
    30    22    13   ar
    31    10     4   ar
    32    21    16   ar
    33    26    24    1
    34    31    32    1
    35     6    11    1
    36     6    12    1
@<TRIPOS>MOLECULE
*****
 32 36 0 0 0
SMALL
GASTEIGER

@<TRIPOS>ATOM
      1 N         138.8901  140.0282  157.5774 N.ar    1  UNL1       -0.2315
      2 N         138.3076  139.9650  158.9582 N.ar    1  UNL1       -0.1678
      3 C         139.3611  139.4287  159.8816 C.ar    1  UNL1        0.1065
      4 C         140.5947  139.1605  159.0714 C.ar    1  UNL1        0.0860
      5 C         141.9454  138.6268  159.4464 C.ar    1  UNL1        0.1316
      6 N         142.2365  138.2563  160.8705 N.pl3   1  UNL1       -0.3425
      7 N         143.0051  138.4636  158.3974 N.ar    1  UNL1       -0.2093
      8 C         142.7141  138.8342  156.9733 C.ar    1  UNL1        0.2014
      9 N         141.3633  139.3679  156.5983 N.ar    1  UNL1       -0.2050
     10 C         140.3037  139.5311  157.6473 C.ar    1  UNL1        0.1654
     11 H         141.5410  138.3634  161.5590 H       1  UNL1        0.1437
     12 H         143.1230  137.9060  161.1166 H       1  UNL1        0.1437
     13 C         139.2079  139.2006  161.3562 C.ar    1  UNL1        0.0196
     14 C         138.7784  137.8571  161.8667 C.ar    1  UNL1        0.0031
     15 C         138.6253  137.6291  163.3413 C.ar    1  UNL1        0.0193
     16 C         138.9016  138.7445  164.3054 C.ar    1  UNL1        0.0844
     17 N         138.7484  138.5164  165.7801 N.ar    1  UNL1       -0.2117
     18 C         139.0247  139.6318  166.7442 C.ar    1  UNL1        0.2247
     19 C         139.4542  140.9753  166.2337 C.ar    1  UNL1        0.0577
     20 C         139.6073  141.2034  164.7591 C.ar    1  UNL1        0.0063
     21 C         139.3310  140.0879  163.7949 C.ar    1  UNL1        0.0180
     22 C         139.4842  140.3160  162.3203 C.ar    1  UNL1        0.0031
     23 O         138.8715  139.4038  168.2188 O.3     1  UNL1       -0.4640
     24 C         139.5862  140.2923  169.1934 C.3     1  UNL1        0.1678
     25 C         139.7652  141.6352  169.8373 C.3     1  UNL1        0.0473
     26 C         140.6451  140.4883  170.2375 C.3     1  UNL1        0.0473
     27 C         138.1832  140.5050  156.3433 C.3     1  UNL1        0.1557
     28 C         138.6234  142.5765  156.4658 C.3     1  UNL1        0.0314
     29 C         137.3662  141.7622  156.3853 C.3     1  UNL1        0.1110
     30 C         136.1091  140.9480  156.3048 C.3     1  UNL1        0.0314
     31 O         136.5492  143.0195  156.4274 O.3     1  UNL1       -0.3848
     32 H         136.9506  143.6452  157.0505 H       1  UNL1        0.2103
@<TRIPOS>BOND
     1    28    29    1
     2    29    30    1
     3    29    31    1
     4    29    27    1
     5    27     1    1
     6     1     2   ar
     7     2     3   ar
     8     3    13    1
     9    13    14   ar
    10    14    15   ar
    11    15    16   ar
    12    16    17   ar
    13    17    18   ar
    14    18    23    1
    15    23    24    1
    16    24    25    1
    17    25    26    1
    18    18    19   ar
    19    19    20   ar
    20    20    21   ar
    21    21    22   ar
    22     3     4   ar
    23     4     5   ar
    24     5     6    1
    25     5     7   ar
    26     7     8   ar
    27     8     9   ar
    28     9    10   ar
    29    10     1   ar
    30    22    13   ar
    31    10     4   ar
    32    21    16   ar
    33    26    24    1
    34    31    32    1
    35     6    11    1
    36     6    12    1
