@<TRIPOS>MOLECULE
*****
 38 43 0 0 0
SMALL
GASTEIGER

@<TRIPOS>ATOM
      1 C         141.5131  143.4158  159.9635 C.ar    1  UNL1        0.0155
      2 C         141.3336  143.0800  161.4144 C.ar    1  UNL1        0.0012
      3 C         141.5997  141.6861  161.9001 C.ar    1  UNL1        0.0015
      4 C         142.0453  140.6278  160.9350 C.ar    1  UNL1        0.0192
      5 C         142.2248  140.9635  159.4842 C.ar    1  UNL1        0.0845
      6 C         141.9587  142.3575  158.9984 C.ar    1  UNL1        0.0203
      7 C         141.4202  141.3504  163.3510 C.ar    1  UNL1        0.0000
      8 C         141.1226  139.9391  163.7631 C.ar    1  UNL1       -0.0003
      9 C         140.9431  139.6034  165.2139 C.ar    1  UNL1       -0.0043
     10 C         141.0611  140.6789  166.2528 C.ar    1  UNL1       -0.0227
     11 C         141.3586  142.0902  165.8408 C.ar    1  UNL1       -0.0043
     12 C         141.5382  142.4259  164.3899 C.ar    1  UNL1       -0.0003
     13 C         140.8816  140.3432  167.7037 C.3     1  UNL1        0.0229
     14 C         142.0293  139.7855  168.4921 C.3     1  UNL1        0.0215
     15 C         141.8498  139.4498  169.9429 C.3     1  UNL1        0.0724
     16 N         140.5224  139.6717  170.6054 N.3     1  UNL1       -0.2726
     17 C         139.3746  140.2294  169.8170 C.3     1  UNL1        0.0724
     18 C         139.5542  140.5651  168.3662 C.3     1  UNL1        0.0215
     19 C         140.5727  139.8708  169.8081 C.3     1  UNL1        0.0724
     20 C         140.7351  140.1744  168.4962 C.3     1  UNL1        0.0215
     21 N         142.6705  139.9052  158.5190 N.ar    1  UNL1       -0.2089
     22 C         142.0054  138.5795  158.2953 C.ar    1  UNL1        0.1229
     23 C         142.7833  137.8418  157.2462 C.ar    1  UNL1        0.1236
     24 N         143.9292  138.7115  156.8215 N.ar    1  UNL1       -0.1284
     25 N         143.8596  139.9869  157.6082 N.ar    1  UNL1       -0.0595
     26 C         142.4703  136.4744  156.7150 C.ar    1  UNL1        0.0210
     27 C         141.3791  136.2952  155.7014 C.ar    1  UNL1        0.0015
     28 C         141.0662  134.9277  155.1703 C.ar    1  UNL1        0.0039
     29 C         141.8444  133.7395  155.6526 C.ar    1  UNL1        0.0714
     30 C         142.9355  133.9188  156.6661 C.ar    1  UNL1        0.0039
     31 C         143.2485  135.2862  157.1973 C.ar    1  UNL1        0.0015
     32 C         141.5314  132.3721  155.1213 C.3     1  UNL1        0.4186
     33 F         141.2184  131.0047  154.5900 F       1  UNL1       -0.1659
     34 F         142.1055  131.7581  156.3636 F       1  UNL1       -0.1659
     35 F         140.9573  132.9861  153.8790 F       1  UNL1       -0.1659
     36 O         142.2437  145.4989  158.5936 O.co2   1  UNL1       -0.5446
     37 C         141.2470  144.8098  159.4777 C.2     1  UNL1        0.0729
     38 O         139.9843  145.5146  159.8761 O.co2   1  UNL1       -0.5446
@<TRIPOS>UNITY_ATOM_ATTR
36 1
charge -1
@<TRIPOS>BOND
     1    36    37   ar
     2    37    38   ar
     3    37     1    1
     4     1     2   ar
     5     2     3   ar
     6     3     7    1
     7     7     8   ar
     8     8     9   ar
     9     9    10   ar
    10    10    13    1
    11    13    14    1
    12    14    15    1
    13    15    16    1
    14    16    17    1
    15    17    18    1
    16    16    19    1
    17    19    20    1
    18    10    11   ar
    19    11    12   ar
    20     3     4   ar
    21     4     5   ar
    22     5    21    1
    23    21    22   ar
    24    22    23   ar
    25    23    26    1
    26    26    27   ar
    27    27    28   ar
    28    28    29   ar
    29    29    32    1
    30    32    33    1
    31    32    34    1
    32    32    35    1
    33    29    30   ar
    34    30    31   ar
    35    23    24   ar
    36    24    25   ar
    37     5     6   ar
    38     6     1   ar
    39    12     7   ar
    40    25    21   ar
    41    18    13    1
    42    31    26   ar
    43    20    13    1
@<TRIPOS>MOLECULE
*****
 38 43 0 0 0
SMALL
GASTEIGER

@<TRIPOS>ATOM
      1 C         141.8694  143.1541  159.6376 C.ar    1  UNL1        0.0155
      2 C         141.6730  142.8529  161.0940 C.ar    1  UNL1        0.0012
      3 C         141.8670  141.4556  161.6037 C.ar    1  UNL1        0.0015
      4 C         142.2575  140.3595  160.6571 C.ar    1  UNL1        0.0192
      5 C         142.4539  140.6606  159.2009 C.ar    1  UNL1        0.0845
      6 C         142.2598  142.0579  158.6911 C.ar    1  UNL1        0.0203
      7 C         141.6706  141.1545  163.0599 C.ar    1  UNL1        0.0000
      8 C         141.7630  142.2570  164.0729 C.ar    1  UNL1       -0.0003
      9 C         141.5666  141.9559  165.5292 C.ar    1  UNL1       -0.0043
     10 C         141.2778  140.5523  165.9725 C.ar    1  UNL1       -0.0227
     11 C         141.1854  139.4498  164.9596 C.ar    1  UNL1       -0.0043
     12 C         141.3818  139.7509  163.5033 C.ar    1  UNL1       -0.0003
     13 C         141.0814  140.2512  167.4288 C.3     1  UNL1        0.0229
     14 C         142.2175  139.7047  168.2416 C.3     1  UNL1        0.0215
     15 C         142.0210  139.4036  169.6978 C.3     1  UNL1        0.0724
     16 N         140.6885  139.6491  170.3413 N.3     1  UNL1       -0.2726
     17 C         139.5524  140.1956  169.5286 C.3     1  UNL1        0.0724
     18 C         139.7489  140.4966  168.0724 C.3     1  UNL1        0.0215
     19 C         140.7482  139.8294  169.5402 C.3     1  UNL1        0.0724
     20 C         140.9258  140.1016  168.2234 C.3     1  UNL1        0.0215
     21 N         142.8443  139.5644  158.2543 N.ar    1  UNL1       -0.2089
     22 C         142.1982  138.2144  158.1540 C.ar    1  UNL1        0.1229
     23 C         142.9040  137.4414  157.0796 C.ar    1  UNL1        0.1236
     24 N         143.9864  138.3137  156.5159 N.ar    1  UNL1       -0.1284
     25 N         143.9495  139.6258  157.2419 N.ar    1  UNL1       -0.0595
     26 C         142.5838  136.0420  156.6451 C.ar    1  UNL1        0.0210
     27 C         143.2828  134.8794  157.2851 C.ar    1  UNL1        0.0015
     28 C         142.9625  133.4799  156.8506 C.ar    1  UNL1        0.0039
     29 C         141.9431  133.2430  155.7760 C.ar    1  UNL1        0.0714
     30 C         141.2440  134.4056  155.1359 C.ar    1  UNL1        0.0039
     31 C         141.5644  135.8051  155.5705 C.ar    1  UNL1        0.0015
     32 C         141.6228  131.8434  155.3414 C.3     1  UNL1        0.4186
     33 F         141.3026  130.4439  154.9070 F       1  UNL1       -0.1659
     34 F         140.9300  132.3800  154.1241 F       1  UNL1       -0.1659
     35 F         142.3156  131.3070  156.5589 F       1  UNL1       -0.1659
     36 O         140.5615  145.3987  159.6678 O.co2   1  UNL1       -0.5446
     37 C         141.6753  144.5514  159.1279 C.2     1  UNL1        0.0729
     38 O         142.5950  145.1014  158.0784 O.co2   1  UNL1       -0.5446
@<TRIPOS>UNITY_ATOM_ATTR
36 1
charge -1
@<TRIPOS>BOND
     1    36    37   ar
     2    37    38   ar
     3    37     1    1
     4     1     2   ar
     5     2     3   ar
     6     3     7    1
     7     7     8   ar
     8     8     9   ar
     9     9    10   ar
    10    10    13    1
    11    13    14    1
    12    14    15    1
    13    15    16    1
    14    16    17    1
    15    17    18    1
    16    16    19    1
    17    19    20    1
    18    10    11   ar
    19    11    12   ar
    20     3     4   ar
    21     4     5   ar
    22     5    21    1
    23    21    22   ar
    24    22    23   ar
    25    23    26    1
    26    26    27   ar
    27    27    28   ar
    28    28    29   ar
    29    29    32    1
    30    32    33    1
    31    32    34    1
    32    32    35    1
    33    29    30   ar
    34    30    31   ar
    35    23    24   ar
    36    24    25   ar
    37     5     6   ar
    38     6     1   ar
    39    12     7   ar
    40    25    21   ar
    41    18    13    1
    42    31    26   ar
    43    20    13    1
@<TRIPOS>MOLECULE
*****
 38 43 0 0 0
SMALL
GASTEIGER

@<TRIPOS>ATOM
      1 C         143.2493  142.0314  158.3359 C.ar    1  UNL1        0.0155
      2 C         142.7532  141.5613  159.6712 C.ar    1  UNL1        0.0012
      3 C         141.4312  142.0420  160.1918 C.ar    1  UNL1        0.0015
      4 C         140.6052  142.9929  159.3772 C.ar    1  UNL1        0.0192
      5 C         141.1013  143.4630  158.0419 C.ar    1  UNL1        0.0845
      6 C         142.4234  142.9823  157.5213 C.ar    1  UNL1        0.0203
      7 C         140.9351  141.5719  161.5270 C.ar    1  UNL1        0.0000
      8 C         139.8402  142.3214  162.2267 C.ar    1  UNL1       -0.0003
      9 C         139.3442  141.8513  163.5619 C.ar    1  UNL1       -0.0043
     10 C         139.9430  140.6317  164.1975 C.ar    1  UNL1       -0.0227
     11 C         141.0378  139.8822  163.4979 C.ar    1  UNL1       -0.0043
     12 C         141.5339  140.3523  162.1626 C.ar    1  UNL1       -0.0003
     13 C         139.4468  140.1616  165.5328 C.3     1  UNL1        0.0229
     14 C         138.2961  139.2026  165.6102 C.3     1  UNL1        0.0215
     15 C         137.8000  138.7326  166.9454 C.3     1  UNL1        0.0724
     16 N         138.4547  139.2215  168.2033 N.3     1  UNL1       -0.2726
     17 C         139.6055  140.1805  168.1260 C.3     1  UNL1        0.0724
     18 C         140.1016  140.6505  166.7907 C.3     1  UNL1        0.0215
     19 C         138.7616  139.5071  167.4947 C.3     1  UNL1        0.0724
     20 C         139.2101  139.9322  166.2873 C.3     1  UNL1        0.0215
     21 N         140.2753  144.4139  157.2273 N.ar    1  UNL1       -0.2089
     22 C         140.4511  145.9021  157.1627 C.ar    1  UNL1        0.1229
     23 C         139.4130  146.4515  156.2298 C.ar    1  UNL1        0.1236
     24 N         138.5956  145.3028  155.7177 N.ar    1  UNL1       -0.1284
     25 N         139.1285  144.0434  156.3342 N.ar    1  UNL1       -0.0595
     26 C         139.2252  147.8959  155.8717 C.ar    1  UNL1        0.0210
     27 C         138.4755  148.8070  156.7979 C.ar    1  UNL1        0.0015
     28 C         138.2877  150.2514  156.4398 C.ar    1  UNL1        0.0039
     29 C         138.8497  150.7849  155.1554 C.ar    1  UNL1        0.0714
     30 C         139.5994  149.8738  154.2291 C.ar    1  UNL1        0.0039
     31 C         139.7872  148.4294  154.5873 C.ar    1  UNL1        0.0015
     32 C         138.6619  152.2294  154.7972 C.3     1  UNL1        0.4186
     33 F         138.4742  153.6739  154.4391 F       1  UNL1       -0.1659
     34 F         138.6086  152.5835  156.2538 F       1  UNL1       -0.1659
     35 F         138.7153  151.8752  153.3407 F       1  UNL1       -0.1659
     36 O         144.7452  140.1132  157.4235 O.co2   1  UNL1       -0.5446
     37 C         144.5714  141.5506  157.8153 C.2     1  UNL1        0.0729
     38 O         145.7195  142.5073  157.6865 O.co2   1  UNL1       -0.5446
@<TRIPOS>UNITY_ATOM_ATTR
36 1
charge -1
@<TRIPOS>BOND
     1    36    37   ar
     2    37    38   ar
     3    37     1    1
     4     1     2   ar
     5     2     3   ar
     6     3     7    1
     7     7     8   ar
     8     8     9   ar
     9     9    10   ar
    10    10    13    1
    11    13    14    1
    12    14    15    1
    13    15    16    1
    14    16    17    1
    15    17    18    1
    16    16    19    1
    17    19    20    1
    18    10    11   ar
    19    11    12   ar
    20     3     4   ar
    21     4     5   ar
    22     5    21    1
    23    21    22   ar
    24    22    23   ar
    25    23    26    1
    26    26    27   ar
    27    27    28   ar
    28    28    29   ar
    29    29    32    1
    30    32    33    1
    31    32    34    1
    32    32    35    1
    33    29    30   ar
    34    30    31   ar
    35    23    24   ar
    36    24    25   ar
    37     5     6   ar
    38     6     1   ar
    39    12     7   ar
    40    25    21   ar
    41    18    13    1
    42    31    26   ar
    43    20    13    1
@<TRIPOS>MOLECULE
*****
 38 43 0 0 0
SMALL
GASTEIGER

@<TRIPOS>ATOM
      1 C         143.5211  140.5109  158.4061 C.ar    1  UNL1        0.0155
      2 C         142.8934  140.5157  159.7684 C.ar    1  UNL1        0.0012
      3 C         142.0978  139.3315  160.2318 C.ar    1  UNL1        0.0015
      4 C         141.9300  138.1425  159.3328 C.ar    1  UNL1        0.0192
      5 C         142.5577  138.1376  157.9706 C.ar    1  UNL1        0.0845
      6 C         143.3533  139.3219  157.5071 C.ar    1  UNL1        0.0203
      7 C         141.4701  139.3363  161.5941 C.ar    1  UNL1        0.0000
      8 C         141.7084  138.1916  162.5338 C.ar    1  UNL1       -0.0003
      9 C         141.0807  138.1965  163.8961 C.ar    1  UNL1       -0.0043
     10 C         140.2146  139.3460  164.3187 C.ar    1  UNL1       -0.0227
     11 C         139.9763  140.4906  163.3791 C.ar    1  UNL1       -0.0043
     12 C         140.6040  140.4858  162.0167 C.ar    1  UNL1       -0.0003
     13 C         139.5869  139.3507  165.6811 C.3     1  UNL1        0.0229
     14 C         138.2820  138.6467  165.9081 C.3     1  UNL1        0.0215
     15 C         137.6543  138.6516  167.2704 C.3     1  UNL1        0.0724
     16 N         138.3315  139.3604  168.4057 N.3     1  UNL1       -0.2726
     17 C         139.6364  140.0644  168.1787 C.3     1  UNL1        0.0724
     18 C         140.2641  140.0596  166.8164 C.3     1  UNL1        0.0215
     19 C         138.7139  139.3852  167.6770 C.3     1  UNL1        0.0724
     20 C         139.2814  139.3808  166.4451 C.3     1  UNL1        0.0215
     21 N         142.3899  136.9486  157.0716 N.ar    1  UNL1       -0.2089
     22 C         143.2431  135.7149  157.0729 C.ar    1  UNL1        0.1229
     23 C         142.7199  134.7884  156.0157 C.ar    1  UNL1        0.1236
     24 N         141.5434  135.4494  155.3609 N.ar    1  UNL1       -0.1284
     25 N         141.3393  136.7846  156.0135 N.ar    1  UNL1       -0.0595
     26 C         143.2757  133.4379  155.6732 C.ar    1  UNL1        0.0210
     27 C         144.2981  132.7993  156.5658 C.ar    1  UNL1        0.0015
     28 C         144.8538  131.4488  156.2233 C.ar    1  UNL1        0.0039
     29 C         144.3871  130.7369  154.9882 C.ar    1  UNL1        0.0714
     30 C         143.3647  131.3755  154.0956 C.ar    1  UNL1        0.0039
     31 C         142.8090  132.7260  154.4382 C.ar    1  UNL1        0.0015
     32 C         144.9429  129.3863  154.6458 C.3     1  UNL1        0.4186
     33 F         145.4987  128.0358  154.3034 F       1  UNL1       -0.1659
     34 F         145.0542  129.7969  153.2074 F       1  UNL1       -0.1659
     35 F         144.8316  128.9758  156.0842 F       1  UNL1       -0.1659
     36 O         145.5759  141.4904  157.1537 O.co2   1  UNL1       -0.5446
     37 C         144.3167  141.6951  157.9427 C.2     1  UNL1        0.0729
     38 O         143.8531  143.0840  158.2683 O.co2   1  UNL1       -0.5446
@<TRIPOS>UNITY_ATOM_ATTR
36 1
charge -1
@<TRIPOS>BOND
     1    36    37   ar
     2    37    38   ar
     3    37     1    1
     4     1     2   ar
     5     2     3   ar
     6     3     7    1
     7     7     8   ar
     8     8     9   ar
     9     9    10   ar
    10    10    13    1
    11    13    14    1
    12    14    15    1
    13    15    16    1
    14    16    17    1
    15    17    18    1
    16    16    19    1
    17    19    20    1
    18    10    11   ar
    19    11    12   ar
    20     3     4   ar
    21     4     5   ar
    22     5    21    1
    23    21    22   ar
    24    22    23   ar
    25    23    26    1
    26    26    27   ar
    27    27    28   ar
    28    28    29   ar
    29    29    32    1
    30    32    33    1
    31    32    34    1
    32    32    35    1
    33    29    30   ar
    34    30    31   ar
    35    23    24   ar
    36    24    25   ar
    37     5     6   ar
    38     6     1   ar
    39    12     7   ar
    40    25    21   ar
    41    18    13    1
    42    31    26   ar
    43    20    13    1
@<TRIPOS>MOLECULE
*****
 38 43 0 0 0
SMALL
GASTEIGER

@<TRIPOS>ATOM
      1 C         141.8235  142.4439  158.9607 C.ar    1  UNL1        0.0155
      2 C         141.6832  142.2449  160.4408 C.ar    1  UNL1        0.0012
      3 C         141.9438  140.8966  161.0443 C.ar    1  UNL1        0.0015
      4 C         142.3447  139.7473  160.1677 C.ar    1  UNL1        0.0192
      5 C         142.4850  139.9463  158.6876 C.ar    1  UNL1        0.0845
      6 C         142.2244  141.2946  158.0840 C.ar    1  UNL1        0.0203
      7 C         141.8035  140.6976  162.5243 C.ar    1  UNL1        0.0000
      8 C         141.4956  139.3355  163.0721 C.ar    1  UNL1       -0.0003
      9 C         141.3553  139.1365  164.5522 C.ar    1  UNL1       -0.0043
     10 C         141.5229  140.2996  165.4846 C.ar    1  UNL1       -0.0227
     11 C         141.8309  141.6616  164.9368 C.ar    1  UNL1       -0.0043
     12 C         141.9712  141.8606  163.4567 C.ar    1  UNL1       -0.0003
     13 C         141.3826  140.1005  166.9647 C.3     1  UNL1        0.0229
     14 C         140.0677  140.3660  167.6358 C.3     1  UNL1        0.0215
     15 C         139.9274  140.1669  169.1159 C.3     1  UNL1        0.0724
     16 N         141.1021  139.7024  169.9249 N.3     1  UNL1       -0.2726
     17 C         142.4170  139.4370  169.2537 C.3     1  UNL1        0.0724
     18 C         142.5573  139.6360  167.7737 C.3     1  UNL1        0.0215
     19 C         141.2273  139.7973  169.1167 C.3     1  UNL1        0.0724
     20 C         141.3541  139.9773  167.7783 C.3     1  UNL1        0.0215
     21 N         142.8859  138.7970  157.8110 N.ar    1  UNL1       -0.2089
     22 C         142.3734  137.3909  157.9114 C.ar    1  UNL1        0.1229
     23 C         143.0404  136.5769  156.8425 C.ar    1  UNL1        0.1236
     24 N         143.9651  137.4800  156.0814 N.ar    1  UNL1       -0.1284
     25 N         143.8697  138.8521  156.6799 N.ar    1  UNL1       -0.0595
     26 C         142.8212  135.1163  156.5807 C.ar    1  UNL1        0.0210
     27 C         143.6631  134.0936  157.2843 C.ar    1  UNL1        0.0015
     28 C         143.4438  132.6330  157.0224 C.ar    1  UNL1        0.0039
     29 C         142.3826  132.1952  156.0568 C.ar    1  UNL1        0.0714
     30 C         141.5408  133.2179  155.3532 C.ar    1  UNL1        0.0039
     31 C         141.7600  134.6785  155.6151 C.ar    1  UNL1        0.0015
     32 C         142.1634  130.7345  155.7949 C.3     1  UNL1        0.4186
     33 F         141.9441  129.2739  155.5330 F       1  UNL1       -0.1659
     34 F         142.8644  130.3993  157.0779 F       1  UNL1       -0.1659
     35 F         141.4624  131.0698  154.5119 F       1  UNL1       -0.1659
     36 O         142.5408  144.9099  158.5681 O.co2   1  UNL1       -0.5446
     37 C         141.5629  143.7922  158.3572 C.2     1  UNL1        0.0729
     38 O         140.3246  144.0227  157.5428 O.co2   1  UNL1       -0.5446
@<TRIPOS>UNITY_ATOM_ATTR
36 1
charge -1
@<TRIPOS>BOND
     1    36    37   ar
     2    37    38   ar
     3    37     1    1
     4     1     2   ar
     5     2     3   ar
     6     3     7    1
     7     7     8   ar
     8     8     9   ar
     9     9    10   ar
    10    10    13    1
    11    13    14    1
    12    14    15    1
    13    15    16    1
    14    16    17    1
    15    17    18    1
    16    16    19    1
    17    19    20    1
    18    10    11   ar
    19    11    12   ar
    20     3     4   ar
    21     4     5   ar
    22     5    21    1
    23    21    22   ar
    24    22    23   ar
    25    23    26    1
    26    26    27   ar
    27    27    28   ar
    28    28    29   ar
    29    29    32    1
    30    32    33    1
    31    32    34    1
    32    32    35    1
    33    29    30   ar
    34    30    31   ar
    35    23    24   ar
    36    24    25   ar
    37     5     6   ar
    38     6     1   ar
    39    12     7   ar
    40    25    21   ar
    41    18    13    1
    42    31    26   ar
    43    20    13    1
@<TRIPOS>MOLECULE
*****
 38 43 0 0 0
SMALL
GASTEIGER

@<TRIPOS>ATOM
      1 C         140.9809  140.4866  158.4270 C.ar    1  UNL1        0.0155
      2 C         142.1821  140.8229  157.5938 C.ar    1  UNL1        0.0012
      3 C         143.5485  140.8208  158.2125 C.ar    1  UNL1        0.0015
      4 C         143.7139  140.4823  159.6644 C.ar    1  UNL1        0.0192
      5 C         142.5128  140.1459  160.4976 C.ar    1  UNL1        0.0845
      6 C         141.1463  140.1481  159.8789 C.ar    1  UNL1        0.0203
      7 C         144.7495  141.1572  157.3793 C.ar    1  UNL1        0.0000
      8 C         145.6445  142.2931  157.7777 C.ar    1  UNL1       -0.0003
      9 C         146.8456  142.6295  156.9445 C.ar    1  UNL1       -0.0043
     10 C         147.1517  141.8300  155.7128 C.ar    1  UNL1       -0.0227
     11 C         146.2568  140.6941  155.3143 C.ar    1  UNL1       -0.0043
     12 C         145.0557  140.3576  156.1476 C.ar    1  UNL1       -0.0003
     13 C         148.3528  142.1664  154.8796 C.3     1  UNL1        0.0229
     14 C         148.2131  143.0763  153.6953 C.3     1  UNL1        0.0215
     15 C         149.4142  143.4127  152.8621 C.3     1  UNL1        0.0724
     16 N         150.7550  142.8391  153.2132 N.3     1  UNL1       -0.2726
     17 C         150.8947  141.9292  154.3975 C.3     1  UNL1        0.0724
     18 C         149.6936  141.5929  155.2306 C.3     1  UNL1        0.0215
     19 C         150.1257  142.6260  153.6995 C.3     1  UNL1        0.0724
     20 C         149.0396  142.3219  154.4529 C.3     1  UNL1        0.0215
     21 N         142.6782  139.8074  161.9495 N.ar    1  UNL1       -0.2089
     22 C         142.6369  140.7789  163.0917 C.ar    1  UNL1        0.1229
     23 C         142.8471  140.0099  164.3623 C.ar    1  UNL1        0.1236
     24 N         143.0184  138.5631  164.0054 N.ar    1  UNL1       -0.1284
     25 N         142.9141  138.4379  162.5143 N.ar    1  UNL1       -0.0595
     26 C         142.8802  140.5864  165.7466 C.ar    1  UNL1        0.0210
     27 C         143.2564  142.0239  165.9516 C.ar    1  UNL1        0.0015
     28 C         143.2895  142.6004  167.3360 C.ar    1  UNL1        0.0039
     29 C         142.9464  141.7393  168.5154 C.ar    1  UNL1        0.0714
     30 C         142.5701  140.3019  168.3104 C.ar    1  UNL1        0.0039
     31 C         142.5371  139.7254  166.9260 C.ar    1  UNL1        0.0015
     32 C         142.9795  142.3159  169.8999 C.3     1  UNL1        0.4186
     33 F         143.0125  142.8924  171.2843 F       1  UNL1       -0.1659
     34 F         144.4750  142.4053  169.8268 F       1  UNL1       -0.1659
     35 F         141.4839  142.2264  169.9728 F       1  UNL1       -0.1659
     36 O         138.5710  139.5257  158.2916 O.co2   1  UNL1       -0.5446
     37 C         139.6145  140.4887  157.8083 C.2     1  UNL1        0.0729
     38 O         139.2916  141.4539  156.7064 O.co2   1  UNL1       -0.5446
@<TRIPOS>UNITY_ATOM_ATTR
36 1
charge -1
@<TRIPOS>BOND
     1    36    37   ar
     2    37    38   ar
     3    37     1    1
     4     1     2   ar
     5     2     3   ar
     6     3     7    1
     7     7     8   ar
     8     8     9   ar
     9     9    10   ar
    10    10    13    1
    11    13    14    1
    12    14    15    1
    13    15    16    1
    14    16    17    1
    15    17    18    1
    16    16    19    1
    17    19    20    1
    18    10    11   ar
    19    11    12   ar
    20     3     4   ar
    21     4     5   ar
    22     5    21    1
    23    21    22   ar
    24    22    23   ar
    25    23    26    1
    26    26    27   ar
    27    27    28   ar
    28    28    29   ar
    29    29    32    1
    30    32    33    1
    31    32    34    1
    32    32    35    1
    33    29    30   ar
    34    30    31   ar
    35    23    24   ar
    36    24    25   ar
    37     5     6   ar
    38     6     1   ar
    39    12     7   ar
    40    25    21   ar
    41    18    13    1
    42    31    26   ar
    43    20    13    1
@<TRIPOS>MOLECULE
*****
 38 43 0 0 0
SMALL
GASTEIGER

@<TRIPOS>ATOM
      1 C         140.9971  139.7174  158.2187 C.ar    1  UNL1        0.0155
      2 C         142.2368  140.0345  157.4360 C.ar    1  UNL1        0.0012
      3 C         143.3339  140.8423  158.0636 C.ar    1  UNL1        0.0015
      4 C         143.1913  141.3330  159.4738 C.ar    1  UNL1        0.0192
      5 C         141.9517  141.0160  160.2565 C.ar    1  UNL1        0.0845
      6 C         140.8545  140.2082  159.6290 C.ar    1  UNL1        0.0203
      7 C         144.5736  141.1593  157.2809 C.ar    1  UNL1        0.0000
      8 C         144.9287  140.3413  156.0747 C.ar    1  UNL1       -0.0003
      9 C         146.1684  140.6583  155.2920 C.ar    1  UNL1       -0.0043
     10 C         147.0530  141.7933  155.7154 C.ar    1  UNL1       -0.0227
     11 C         146.6979  142.6113  156.9215 C.ar    1  UNL1       -0.0043
     12 C         145.4582  142.2943  157.7043 C.ar    1  UNL1       -0.0003
     13 C         148.2927  142.1103  154.9326 C.3     1  UNL1        0.0229
     14 C         149.6104  141.5243  155.3451 C.3     1  UNL1        0.0215
     15 C         150.8501  141.8413  154.5623 C.3     1  UNL1        0.0724
     16 N         150.7720  142.7444  153.3671 N.3     1  UNL1       -0.2726
     17 C         149.4543  143.3304  152.9547 C.3     1  UNL1        0.0724
     18 C         148.2146  143.0134  153.7375 C.3     1  UNL1        0.0215
     19 C         150.0657  142.5996  153.7647 C.3     1  UNL1        0.0724
     20 C         148.9448  142.3129  154.4726 C.3     1  UNL1        0.0215
     21 N         141.8091  141.5067  161.6668 N.ar    1  UNL1       -0.2089
     22 C         142.2329  140.7711  162.9034 C.ar    1  UNL1        0.1229
     23 C         141.9034  141.6290  164.0890 C.ar    1  UNL1        0.1236
     24 N         141.2759  142.8948  163.5850 N.ar    1  UNL1       -0.1284
     25 N         141.2176  142.8193  162.0880 N.ar    1  UNL1       -0.0595
     26 C         142.1568  141.2820  165.5260 C.ar    1  UNL1        0.0210
     27 C         142.7000  142.3193  166.4635 C.ar    1  UNL1        0.0015
     28 C         142.9534  141.9723  167.9007 C.ar    1  UNL1        0.0039
     29 C         142.6636  140.5879  168.4003 C.ar    1  UNL1        0.0714
     30 C         142.1204  139.5506  167.4628 C.ar    1  UNL1        0.0039
     31 C         141.8670  139.8977  166.0257 C.ar    1  UNL1        0.0015
     32 C         142.9170  140.2409  169.8375 C.3     1  UNL1        0.4186
     33 F         143.1704  139.8938  171.2746 F       1  UNL1       -0.1659
     34 F         143.7948  141.4494  169.9745 F       1  UNL1       -0.1659
     35 F         142.0392  139.0323  169.7004 F       1  UNL1       -0.1659
     36 O         138.5433  139.5166  157.3892 O.co2   1  UNL1       -0.5446
     37 C         139.9000  138.9097  157.5911 C.2     1  UNL1        0.0729
     38 O         140.1597  137.4950  157.1655 O.co2   1  UNL1       -0.5446
@<TRIPOS>UNITY_ATOM_ATTR
36 1
charge -1
@<TRIPOS>BOND
     1    36    37   ar
     2    37    38   ar
     3    37     1    1
     4     1     2   ar
     5     2     3   ar
     6     3     7    1
     7     7     8   ar
     8     8     9   ar
     9     9    10   ar
    10    10    13    1
    11    13    14    1
    12    14    15    1
    13    15    16    1
    14    16    17    1
    15    17    18    1
    16    16    19    1
    17    19    20    1
    18    10    11   ar
    19    11    12   ar
    20     3     4   ar
    21     4     5   ar
    22     5    21    1
    23    21    22   ar
    24    22    23   ar
    25    23    26    1
    26    26    27   ar
    27    27    28   ar
    28    28    29   ar
    29    29    32    1
    30    32    33    1
    31    32    34    1
    32    32    35    1
    33    29    30   ar
    34    30    31   ar
    35    23    24   ar
    36    24    25   ar
    37     5     6   ar
    38     6     1   ar
    39    12     7   ar
    40    25    21   ar
    41    18    13    1
    42    31    26   ar
    43    20    13    1
@<TRIPOS>MOLECULE
*****
 38 43 0 0 0
SMALL
GASTEIGER

@<TRIPOS>ATOM
      1 C         140.7823  144.4366  160.5747 C.ar    1  UNL1        0.0155
      2 C         140.6386  143.9055  161.9702 C.ar    1  UNL1        0.0012
      3 C         141.3936  142.6783  162.3872 C.ar    1  UNL1        0.0015
      4 C         142.2924  141.9821  161.4086 C.ar    1  UNL1        0.0192
      5 C         142.4361  142.5131  160.0131 C.ar    1  UNL1        0.0845
      6 C         141.6810  143.7403  159.5962 C.ar    1  UNL1        0.0203
      7 C         141.2499  142.1473  163.7826 C.ar    1  UNL1        0.0000
      8 C         140.9065  140.7041  164.0043 C.ar    1  UNL1       -0.0003
      9 C         140.7628  140.1731  165.3998 C.ar    1  UNL1       -0.0043
     10 C         140.9625  141.0853  166.5736 C.ar    1  UNL1       -0.0227
     11 C         141.3060  142.5285  166.3520 C.ar    1  UNL1       -0.0043
     12 C         141.4497  143.0596  164.9565 C.ar    1  UNL1       -0.0003
     13 C         140.8188  140.5543  167.9691 C.3     1  UNL1        0.0229
     14 C         139.5191  140.7114  168.7013 C.3     1  UNL1        0.0215
     15 C         139.3755  140.1804  170.0967 C.3     1  UNL1        0.0724
     16 N         140.5315  139.4922  170.7600 N.3     1  UNL1       -0.2726
     17 C         141.8312  139.3351  170.0279 C.3     1  UNL1        0.0724
     18 C         141.9749  139.8661  168.6325 C.3     1  UNL1        0.0215
     19 C         140.6579  139.7667  169.9942 C.3     1  UNL1        0.0724
     20 C         140.7878  140.2469  168.7324 C.3     1  UNL1        0.0215
     21 N         143.3348  141.8168  159.0346 N.ar    1  UNL1       -0.2089
     22 C         144.2978  142.4805  158.0953 C.ar    1  UNL1        0.1229
     23 C         144.9865  141.4085  157.3037 C.ar    1  UNL1        0.1236
     24 N         144.4491  140.0824  157.7538 N.ar    1  UNL1       -0.1284
     25 N         143.4283  140.3346  158.8235 N.ar    1  UNL1       -0.0595
     26 C         146.0293  141.6247  156.2476 C.ar    1  UNL1        0.0210
     27 C         145.8411  141.0436  154.8776 C.ar    1  UNL1        0.0015
     28 C         146.8841  141.2599  153.8214 C.ar    1  UNL1        0.0039
     29 C         148.1153  142.0572  154.1353 C.ar    1  UNL1        0.0714
     30 C         148.3035  142.6383  155.5052 C.ar    1  UNL1        0.0039
     31 C         147.2605  142.4220  156.5614 C.ar    1  UNL1        0.0015
     32 C         149.1583  142.2734  153.0790 C.3     1  UNL1        0.4186
     33 F         150.2012  142.4896  152.0229 F       1  UNL1       -0.1659
     34 F         148.1028  142.1791  152.0175 F       1  UNL1       -0.1659
     35 F         150.2137  142.3678  154.1407 F       1  UNL1       -0.1659
     36 O         139.2898  146.4746  161.1818 O.co2   1  UNL1       -0.5446
     37 C         140.0272  145.6637  160.1578 C.2     1  UNL1        0.0729
     38 O         140.0096  146.0801  158.7168 O.co2   1  UNL1       -0.5446
@<TRIPOS>UNITY_ATOM_ATTR
36 1
charge -1
@<TRIPOS>BOND
     1    36    37   ar
     2    37    38   ar
     3    37     1    1
     4     1     2   ar
     5     2     3   ar
     6     3     7    1
     7     7     8   ar
     8     8     9   ar
     9     9    10   ar
    10    10    13    1
    11    13    14    1
    12    14    15    1
    13    15    16    1
    14    16    17    1
    15    17    18    1
    16    16    19    1
    17    19    20    1
    18    10    11   ar
    19    11    12   ar
    20     3     4   ar
    21     4     5   ar
    22     5    21    1
    23    21    22   ar
    24    22    23   ar
    25    23    26    1
    26    26    27   ar
    27    27    28   ar
    28    28    29   ar
    29    29    32    1
    30    32    33    1
    31    32    34    1
    32    32    35    1
    33    29    30   ar
    34    30    31   ar
    35    23    24   ar
    36    24    25   ar
    37     5     6   ar
    38     6     1   ar
    39    12     7   ar
    40    25    21   ar
    41    18    13    1
    42    31    26   ar
    43    20    13    1
@<TRIPOS>MOLECULE
*****
 38 43 0 0 0
SMALL
GASTEIGER

@<TRIPOS>ATOM
      1 C         138.5284  140.5654  159.5014 C.ar    1  UNL1        0.0155
      2 C         138.5388  141.9597  158.9482 C.ar    1  UNL1        0.0012
      3 C         139.1988  142.2389  157.6305 C.ar    1  UNL1        0.0015
      4 C         139.8485  141.1238  156.8659 C.ar    1  UNL1        0.0192
      5 C         139.8381  139.7296  157.4191 C.ar    1  UNL1        0.0845
      6 C         139.1781  139.4504  158.7369 C.ar    1  UNL1        0.0203
      7 C         139.2091  143.6331  157.0774 C.ar    1  UNL1        0.0000
      8 C         138.3083  143.9927  155.9331 C.ar    1  UNL1       -0.0003
      9 C         138.3186  145.3869  155.3799 C.ar    1  UNL1       -0.0043
     10 C         139.2298  146.4216  155.9710 C.ar    1  UNL1       -0.0227
     11 C         140.1306  146.0620  157.1152 C.ar    1  UNL1       -0.0043
     12 C         140.1203  144.6677  157.6684 C.ar    1  UNL1       -0.0003
     13 C         139.2401  147.8159  155.4178 C.3     1  UNL1        0.0229
     14 C         138.5408  148.9200  156.1539 C.3     1  UNL1        0.0215
     15 C         138.5511  150.3142  155.6007 C.3     1  UNL1        0.0724
     16 N         139.2607  150.6042  154.3114 N.3     1  UNL1       -0.2726
     17 C         139.9600  149.5001  153.5753 C.3     1  UNL1        0.0724
     18 C         139.9497  148.1059  154.1285 C.3     1  UNL1        0.0215
     19 C         139.2824  149.8246  154.5751 C.3     1  UNL1        0.0724
     20 C         139.2731  148.5639  155.0754 C.3     1  UNL1        0.0215
     21 N         140.4878  138.6145  156.6545 N.ar    1  UNL1       -0.2089
     22 C         140.9949  137.3270  157.2333 C.ar    1  UNL1        0.1229
     23 C         141.5649  136.5079  156.1134 C.ar    1  UNL1        0.1236
     24 N         141.4102  137.2893  154.8424 N.ar    1  UNL1       -0.1284
     25 N         140.7445  138.5913  155.1767 N.ar    1  UNL1       -0.0595
     26 C         142.1814  135.1466  156.2419 C.ar    1  UNL1        0.0210
     27 C         143.3326  134.9300  157.1789 C.ar    1  UNL1        0.0015
     28 C         143.9491  133.5686  157.3073 C.ar    1  UNL1        0.0039
     29 C         143.4144  132.4238  156.4988 C.ar    1  UNL1        0.0714
     30 C         142.2633  132.6404  155.5618 C.ar    1  UNL1        0.0039
     31 C         141.6468  134.0018  155.4334 C.ar    1  UNL1        0.0015
     32 C         144.0310  131.0623  156.6273 C.3     1  UNL1        0.4186
     33 F         144.6476  129.7010  156.7557 F       1  UNL1       -0.1659
     34 F         142.9383  130.6566  157.5713 F       1  UNL1       -0.1659
     35 F         145.1237  131.4682  155.6832 F       1  UNL1       -0.1659
     36 O         137.4115  141.4229  161.6847 O.co2   1  UNL1       -0.5446
     37 C         137.8685  140.2863  160.8192 C.2     1  UNL1        0.0729
     38 O         137.6654  138.8705  161.2713 O.co2   1  UNL1       -0.5446
@<TRIPOS>UNITY_ATOM_ATTR
36 1
charge -1
@<TRIPOS>BOND
     1    36    37   ar
     2    37    38   ar
     3    37     1    1
     4     1     2   ar
     5     2     3   ar
     6     3     7    1
     7     7     8   ar
     8     8     9   ar
     9     9    10   ar
    10    10    13    1
    11    13    14    1
    12    14    15    1
    13    15    16    1
    14    16    17    1
    15    17    18    1
    16    16    19    1
    17    19    20    1
    18    10    11   ar
    19    11    12   ar
    20     3     4   ar
    21     4     5   ar
    22     5    21    1
    23    21    22   ar
    24    22    23   ar
    25    23    26    1
    26    26    27   ar
    27    27    28   ar
    28    28    29   ar
    29    29    32    1
    30    32    33    1
    31    32    34    1
    32    32    35    1
    33    29    30   ar
    34    30    31   ar
    35    23    24   ar
    36    24    25   ar
    37     5     6   ar
    38     6     1   ar
    39    12     7   ar
    40    25    21   ar
    41    18    13    1
    42    31    26   ar
    43    20    13    1
