@<TRIPOS>MOLECULE
*****
 24 27 0 0 0
SMALL
GASTEIGER

@<TRIPOS>ATOM
      1 N         140.3999  139.6446  166.5602 N.ar    1  UNL1       -0.3100
      2 C         141.6929  139.1943  165.9474 C.ar    1  UNL1        0.1317
      3 N         142.7589  139.2803  166.9991 N.ar    1  UNL1       -0.2300
      4 C         142.1249  139.7837  168.2618 C.ar    1  UNL1        0.0984
      5 C         142.6867  140.0661  169.6236 C.ar    1  UNL1        0.0206
      6 C         141.7906  140.5737  170.7141 C.ar    1  UNL1        0.0016
      7 C         140.3326  140.7988  170.4429 C.ar    1  UNL1        0.0016
      8 C         139.7708  140.5164  169.0811 C.ar    1  UNL1        0.0188
      9 C         140.6669  140.0088  167.9906 C.ar    1  UNL1        0.0789
     10 C         141.8858  138.7382  164.5315 C.3     1  UNL1        0.1199
     11 C         141.2611  137.4569  164.0645 C.3     1  UNL1        0.0871
     12 N         141.4541  137.0008  162.6487 N.3     1  UNL1       -0.2957
     13 C         142.2718  137.8259  161.6997 C.3     1  UNL1        0.0804
     14 C         142.8966  139.1071  162.1667 C.3     1  UNL1        0.0750
     15 S         142.7036  139.5633  163.5826 S.3     1  UNL1       -0.1306
     16 H         140.5245  136.9144  162.2379 H       1  UNL1        0.1233
     17 C         139.0729  139.7177  165.8647 C.3     1  UNL1        0.1339
     18 F         137.5513  144.6566  162.8163 F       1  UNL1       -0.2042
     19 C         137.9318  143.4219  163.5784 C.ar    1  UNL1        0.1401
     20 C         137.3760  142.0890  163.1725 C.ar    1  UNL1        0.0294
     21 C         137.7565  140.8543  163.9346 C.ar    1  UNL1       -0.0001
     22 C         138.6925  140.9524  165.1027 C.ar    1  UNL1        0.0006
     23 C         139.2482  142.2853  165.5085 C.ar    1  UNL1       -0.0001
     24 C         138.8678  143.5200  164.7464 C.ar    1  UNL1        0.0294
@<TRIPOS>BOND
     1    18    19    1
     2    19    20   ar
     3    20    21   ar
     4    21    22   ar
     5    22    17    1
     6    17     1    1
     7     1     2   ar
     8    10     2    1
     9    10    11    1
    10    11    12    1
    11    12    13    1
    12    13    14    1
    13    14    15    1
    14     2     3   ar
    15     3     4   ar
    16     4     5   ar
    17     5     6   ar
    18     6     7   ar
    19     7     8   ar
    20     8     9   ar
    21    22    23   ar
    22    23    24   ar
    23    24    19   ar
    24     9     1   ar
    25    15    10    1
    26     9     4   ar
    27    12    16    1
@<TRIPOS>MOLECULE
*****
 24 27 0 0 0
SMALL
GASTEIGER

@<TRIPOS>ATOM
      1 N         143.0520  140.1829  166.2924 N.ar    1  UNL1       -0.3100
      2 C         143.4790  141.4898  165.6928 C.ar    1  UNL1        0.1317
      3 N         143.3949  142.5394  166.7611 N.ar    1  UNL1       -0.2300
      4 C         142.9159  141.8811  168.0210 C.ar    1  UNL1        0.0984
      5 C         142.6453  142.4197  169.3945 C.ar    1  UNL1        0.0206
      6 C         142.1628  141.5019  170.4784 C.ar    1  UNL1        0.0016
      7 C         141.9509  140.0455  170.1887 C.ar    1  UNL1        0.0016
      8 C         142.2215  139.5069  168.8151 C.ar    1  UNL1        0.0188
      9 C         142.7039  140.4247  167.7313 C.ar    1  UNL1        0.0789
     10 C         143.9138  141.7088  164.2740 C.3     1  UNL1        0.1199
     11 C         145.3744  141.7687  163.9379 C.3     1  UNL1        0.0871
     12 N         145.8091  141.9877  162.5191 N.3     1  UNL1       -0.2957
     13 C         144.7833  142.1467  161.4363 C.3     1  UNL1        0.0804
     14 C         143.3227  142.0867  161.7724 C.3     1  UNL1        0.0750
     15 S         142.8879  141.8678  163.1912 S.3     1  UNL1       -0.1306
     16 H         146.3875  141.1879  162.2616 H       1  UNL1        0.1233
     17 C         142.9848  138.8654  165.5784 C.3     1  UNL1        0.1339
     18 F         138.0970  137.4120  162.4167 F       1  UNL1       -0.2042
     19 C         139.3189  137.7754  163.2072 C.ar    1  UNL1        0.1401
     20 C         140.6805  137.6183  162.5976 C.ar    1  UNL1        0.0294
     21 C         141.9024  137.9817  163.3881 C.ar    1  UNL1       -0.0001
     22 C         141.7629  138.5021  164.7881 C.ar    1  UNL1        0.0006
     23 C         140.4012  138.6591  165.3975 C.ar    1  UNL1       -0.0001
     24 C         139.1793  138.2957  164.6070 C.ar    1  UNL1        0.0294
@<TRIPOS>BOND
     1    18    19    1
     2    19    20   ar
     3    20    21   ar
     4    21    22   ar
     5    22    17    1
     6    17     1    1
     7     1     2   ar
     8    10     2    1
     9    10    11    1
    10    11    12    1
    11    12    13    1
    12    13    14    1
    13    14    15    1
    14     2     3   ar
    15     3     4   ar
    16     4     5   ar
    17     5     6   ar
    18     6     7   ar
    19     7     8   ar
    20     8     9   ar
    21    22    23   ar
    22    23    24   ar
    23    24    19   ar
    24     9     1   ar
    25    15    10    1
    26     9     4   ar
    27    12    16    1
@<TRIPOS>MOLECULE
*****
 24 27 0 0 0
SMALL
GASTEIGER

@<TRIPOS>ATOM
      1 N         140.6806  141.3121  166.5323 N.ar    1  UNL1       -0.3100
      2 C         141.7349  140.3376  166.0979 C.ar    1  UNL1        0.1317
      3 N         142.8532  140.3889  167.0963 N.ar    1  UNL1       -0.2300
      4 C         142.4900  141.3952  168.1477 C.ar    1  UNL1        0.0984
      5 C         143.2086  141.8656  169.3775 C.ar    1  UNL1        0.0206
      6 C         142.5843  142.9066  170.2588 C.ar    1  UNL1        0.0016
      7 C         141.2416  143.4771  169.9102 C.ar    1  UNL1        0.0016
      8 C         140.5231  143.0067  168.6804 C.ar    1  UNL1        0.0188
      9 C         141.1473  141.9657  167.7992 C.ar    1  UNL1        0.0789
     10 C         141.6805  139.4649  164.8790 C.3     1  UNL1        0.1199
     11 C         141.2052  138.0468  164.9926 C.3     1  UNL1        0.0871
     12 N         141.1508  137.1742  163.7737 N.3     1  UNL1       -0.2957
     13 C         141.5716  137.7197  162.4414 C.3     1  UNL1        0.0804
     14 C         142.0469  139.1378  162.3278 C.3     1  UNL1        0.0750
     15 S         142.1013  140.0104  163.5467 S.3     1  UNL1       -0.1306
     16 H         140.1830  136.8676  163.6741 H       1  UNL1        0.1233
     17 C         139.3868  141.5851  165.8242 C.3     1  UNL1        0.1339
     18 F         138.9847  146.1648  161.9687 F       1  UNL1       -0.2042
     19 C         139.0852  145.0199  162.9326 C.ar    1  UNL1        0.1401
     20 C         137.8688  144.2050  163.2587 C.ar    1  UNL1        0.0294
     21 C         137.9693  143.0601  164.2225 C.ar    1  UNL1       -0.0001
     22 C         139.2863  142.7300  164.8604 C.ar    1  UNL1        0.0006
     23 C         140.5027  143.5449  164.5343 C.ar    1  UNL1       -0.0001
     24 C         140.4021  144.6898  163.5704 C.ar    1  UNL1        0.0294
@<TRIPOS>BOND
     1    18    19    1
     2    19    20   ar
     3    20    21   ar
     4    21    22   ar
     5    22    17    1
     6    17     1    1
     7     1     2   ar
     8    10     2    1
     9    10    11    1
    10    11    12    1
    11    12    13    1
    12    13    14    1
    13    14    15    1
    14     2     3   ar
    15     3     4   ar
    16     4     5   ar
    17     5     6   ar
    18     6     7   ar
    19     7     8   ar
    20     8     9   ar
    21    22    23   ar
    22    23    24   ar
    23    24    19   ar
    24     9     1   ar
    25    15    10    1
    26     9     4   ar
    27    12    16    1
@<TRIPOS>MOLECULE
*****
 24 27 0 0 0
SMALL
GASTEIGER

@<TRIPOS>ATOM
      1 N         140.8328  140.0459  166.2082 N.ar    1  UNL1       -0.3100
      2 C         139.4433  139.5889  165.8758 C.ar    1  UNL1        0.1317
      3 N         138.6455  139.5699  167.1459 N.ar    1  UNL1       -0.2300
      4 C         139.5418  140.0152  168.2632 C.ar    1  UNL1        0.0984
      5 C         139.3017  140.1908  169.7333 C.ar    1  UNL1        0.0206
      6 C         140.4134  140.6606  170.6240 C.ar    1  UNL1        0.0016
      7 C         141.7653  140.9548  170.0444 C.ar    1  UNL1        0.0016
      8 C         142.0055  140.7791  168.5742 C.ar    1  UNL1        0.0188
      9 C         140.8937  140.3094  167.6836 C.ar    1  UNL1        0.0789
     10 C         138.9401  139.2162  164.5128 C.3     1  UNL1        0.1199
     11 C         139.0713  137.8039  164.0251 C.3     1  UNL1        0.0871
     12 N         138.5681  137.4312  162.6620 N.3     1  UNL1       -0.2957
     13 C         137.9336  138.4710  161.7867 C.3     1  UNL1        0.0804
     14 C         137.8024  139.8834  162.2744 C.3     1  UNL1        0.0750
     15 S         138.3056  140.2560  163.6374 S.3     1  UNL1       -0.1306
     16 H         137.8744  136.6954  162.7953 H       1  UNL1        0.1233
     17 C         141.9631  140.2105  165.2358 C.3     1  UNL1        0.1339
     18 F         144.0108  145.6936  163.9159 F       1  UNL1       -0.2042
     19 C         143.4988  144.3228  164.2459 C.ar    1  UNL1        0.1401
     20 C         144.3451  143.3792  165.0480 C.ar    1  UNL1        0.0294
     21 C         143.8332  142.0084  165.3780 C.ar    1  UNL1       -0.0001
     22 C         142.4749  141.5812  164.9058 C.ar    1  UNL1        0.0006
     23 C         141.6287  142.5249  164.1037 C.ar    1  UNL1       -0.0001
     24 C         142.1407  143.8957  163.7737 C.ar    1  UNL1        0.0294
@<TRIPOS>BOND
     1    18    19    1
     2    19    20   ar
     3    20    21   ar
     4    21    22   ar
     5    22    17    1
     6    17     1    1
     7     1     2   ar
     8    10     2    1
     9    10    11    1
    10    11    12    1
    11    12    13    1
    12    13    14    1
    13    14    15    1
    14     2     3   ar
    15     3     4   ar
    16     4     5   ar
    17     5     6   ar
    18     6     7   ar
    19     7     8   ar
    20     8     9   ar
    21    22    23   ar
    22    23    24   ar
    23    24    19   ar
    24     9     1   ar
    25    15    10    1
    26     9     4   ar
    27    12    16    1
@<TRIPOS>MOLECULE
*****
 24 27 0 0 0
SMALL
GASTEIGER

@<TRIPOS>ATOM
      1 N         139.5700  140.8413  165.2659 N.ar    1  UNL1       -0.3100
      2 C         140.0702  139.7161  166.1226 C.ar    1  UNL1        0.1317
      3 N         139.7800  138.4277  165.4113 N.ar    1  UNL1       -0.2300
      4 C         139.1005  138.7566  164.1151 C.ar    1  UNL1        0.0984
      5 C         138.5832  137.8906  163.0051 C.ar    1  UNL1        0.0206
      6 C         137.9361  138.5162  161.8051 C.ar    1  UNL1        0.0016
      7 C         137.8063  140.0079  161.7153 C.ar    1  UNL1        0.0016
      8 C         138.3236  140.8739  162.8254 C.ar    1  UNL1        0.0188
      9 C         138.9707  140.2483  164.0253 C.ar    1  UNL1        0.0789
     10 C         140.7425  139.8549  167.4563 C.3     1  UNL1        0.1199
     11 C         142.2284  139.6834  167.5686 C.3     1  UNL1        0.0871
     12 N         142.9007  139.8222  168.9023 N.3     1  UNL1       -0.2957
     13 C         142.0871  140.1325  170.1237 C.3     1  UNL1        0.0804
     14 C         140.6012  140.3041  170.0113 C.3     1  UNL1        0.0750
     15 S         139.9289  140.1653  168.6776 S.3     1  UNL1       -0.1306
     16 H         143.5885  140.5696  168.8090 H       1  UNL1        0.1233
     17 C         139.6544  142.3028  165.5926 C.3     1  UNL1        0.1339
     18 F         144.0889  145.6367  163.3079 F       1  UNL1       -0.2042
     19 C         142.9802  144.8033  163.8790 C.ar    1  UNL1        0.1401
     20 C         143.2984  143.5406  164.6237 C.ar    1  UNL1        0.0294
     21 C         142.1898  142.7072  165.1949 C.ar    1  UNL1       -0.0001
     22 C         140.7629  143.1363  165.0214 C.ar    1  UNL1        0.0006
     23 C         140.4448  144.3990  164.2768 C.ar    1  UNL1       -0.0001
     24 C         141.5534  145.2324  163.7056 C.ar    1  UNL1        0.0294
@<TRIPOS>BOND
     1    18    19    1
     2    19    20   ar
     3    20    21   ar
     4    21    22   ar
     5    22    17    1
     6    17     1    1
     7     1     2   ar
     8    10     2    1
     9    10    11    1
    10    11    12    1
    11    12    13    1
    12    13    14    1
    13    14    15    1
    14     2     3   ar
    15     3     4   ar
    16     4     5   ar
    17     5     6   ar
    18     6     7   ar
    19     7     8   ar
    20     8     9   ar
    21    22    23   ar
    22    23    24   ar
    23    24    19   ar
    24     9     1   ar
    25    15    10    1
    26     9     4   ar
    27    12    16    1
@<TRIPOS>MOLECULE
*****
 24 27 0 0 0
SMALL
GASTEIGER

@<TRIPOS>ATOM
      1 N         140.2375  140.7455  165.7682 N.ar    1  UNL1       -0.3100
      2 C         141.4284  140.1480  166.4573 C.ar    1  UNL1        0.1317
      3 N         141.7209  138.8251  165.8136 N.ar    1  UNL1       -0.2300
      4 C         140.7109  138.6051  164.7266 C.ar    1  UNL1        0.0984
      5 C         140.5075  137.4773  163.7588 C.ar    1  UNL1        0.0206
      6 C         139.3874  137.5364  162.7630 C.ar    1  UNL1        0.0016
      7 C         138.4706  138.7233  162.7350 C.ar    1  UNL1        0.0016
      8 C         138.6739  139.8510  163.7028 C.ar    1  UNL1        0.0188
      9 C         139.7941  139.7919  164.6986 C.ar    1  UNL1        0.0789
     10 C         142.1925  140.7650  167.5911 C.3     1  UNL1        0.1199
     11 C         142.8948  142.0761  167.3965 C.3     1  UNL1        0.0871
     12 N         143.6590  142.6931  168.5302 N.3     1  UNL1       -0.2957
     13 C         143.7208  141.9991  169.8585 C.3     1  UNL1        0.0804
     14 C         143.0185  140.6880  170.0531 C.3     1  UNL1        0.0750
     15 S         142.2543  140.0710  168.9194 S.3     1  UNL1       -0.1306
     16 H         143.2481  143.6117  168.6968 H       1  UNL1        0.1233
     17 C         139.6017  142.0650  166.0919 C.3     1  UNL1        0.1339
     18 F         139.2589  146.3400  161.8959 F       1  UNL1       -0.2042
     19 C         139.3446  145.2713  162.9449 C.ar    1  UNL1        0.1401
     20 C         138.1258  144.4746  163.3052 C.ar    1  UNL1        0.0294
     21 C         138.2115  143.4058  164.3542 C.ar    1  UNL1       -0.0001
     22 C         139.5160  143.1337  165.0430 C.ar    1  UNL1        0.0006
     23 C         140.7348  143.9304  164.6826 C.ar    1  UNL1       -0.0001
     24 C         140.6491  144.9992  163.6336 C.ar    1  UNL1        0.0294
@<TRIPOS>BOND
     1    18    19    1
     2    19    20   ar
     3    20    21   ar
     4    21    22   ar
     5    22    17    1
     6    17     1    1
     7     1     2   ar
     8    10     2    1
     9    10    11    1
    10    11    12    1
    11    12    13    1
    12    13    14    1
    13    14    15    1
    14     2     3   ar
    15     3     4   ar
    16     4     5   ar
    17     5     6   ar
    18     6     7   ar
    19     7     8   ar
    20     8     9   ar
    21    22    23   ar
    22    23    24   ar
    23    24    19   ar
    24     9     1   ar
    25    15    10    1
    26     9     4   ar
    27    12    16    1
@<TRIPOS>MOLECULE
*****
 24 27 0 0 0
SMALL
GASTEIGER

@<TRIPOS>ATOM
      1 N         140.1522  141.3993  166.2487 N.ar    1  UNL1       -0.3100
      2 C         139.3288  140.1629  166.0409 C.ar    1  UNL1        0.1317
      3 N         138.9873  139.6014  167.3893 N.ar    1  UNL1       -0.2300
      4 C         139.5997  140.4908  168.4304 C.ar    1  UNL1        0.0984
      5 C         139.5948  140.4324  169.9293 C.ar    1  UNL1        0.0206
      6 C         140.3098  141.4852  170.7232 C.ar    1  UNL1        0.0016
      7 C         141.0298  142.5964  170.0182 C.ar    1  UNL1        0.0016
      8 C         141.0347  142.6548  168.5194 C.ar    1  UNL1        0.0188
      9 C         140.3197  141.6020  167.7255 C.ar    1  UNL1        0.0789
     10 C         138.9188  139.5888  164.7172 C.3     1  UNL1        0.1199
     11 C         138.0736  140.3975  163.7783 C.3     1  UNL1        0.0871
     12 N         137.6636  139.8234  162.4546 N.3     1  UNL1       -0.2957
     13 C         138.0988  138.4405  162.0697 C.3     1  UNL1        0.0804
     14 C         138.9440  137.6317  163.0086 C.3     1  UNL1        0.0750
     15 S         139.3540  138.2059  164.3323 S.3     1  UNL1       -0.1306
     16 H         138.0197  140.4546  161.7369 H       1  UNL1        0.1233
     17 C         140.7103  142.2787  165.1693 C.3     1  UNL1        0.1339
     18 F         146.4634  141.7557  163.5482 F       1  UNL1       -0.2042
     19 C         145.0251  141.8865  163.9535 C.ar    1  UNL1        0.1401
     20 C         144.0563  140.7830  163.6472 C.ar    1  UNL1        0.0294
     21 C         142.6180  140.9137  164.0525 C.ar    1  UNL1       -0.0001
     22 C         142.1485  142.1480  164.7640 C.ar    1  UNL1        0.0006
     23 C         143.1173  143.2515  165.0703 C.ar    1  UNL1       -0.0001
     24 C         144.5556  143.1207  164.6650 C.ar    1  UNL1        0.0294
@<TRIPOS>BOND
     1    18    19    1
     2    19    20   ar
     3    20    21   ar
     4    21    22   ar
     5    22    17    1
     6    17     1    1
     7     1     2   ar
     8    10     2    1
     9    10    11    1
    10    11    12    1
    11    12    13    1
    12    13    14    1
    13    14    15    1
    14     2     3   ar
    15     3     4   ar
    16     4     5   ar
    17     5     6   ar
    18     6     7   ar
    19     7     8   ar
    20     8     9   ar
    21    22    23   ar
    22    23    24   ar
    23    24    19   ar
    24     9     1   ar
    25    15    10    1
    26     9     4   ar
    27    12    16    1
@<TRIPOS>MOLECULE
*****
 24 27 0 0 0
SMALL
GASTEIGER

@<TRIPOS>ATOM
      1 N         142.6848  141.1508  166.2830 N.ar    1  UNL1       -0.3100
      2 C         142.9270  139.7146  165.9245 C.ar    1  UNL1        0.1317
      3 N         142.9157  138.9123  167.1919 N.ar    1  UNL1       -0.2300
      4 C         142.6664  139.8527  168.3336 C.ar    1  UNL1        0.0984
      5 C         142.5509  139.6279  169.8122 C.ar    1  UNL1        0.0206
      6 C         142.2927  140.7867  170.7290 C.ar    1  UNL1        0.0016
      7 C         142.1500  142.1702  170.1672 C.ar    1  UNL1        0.0016
      8 C         142.2655  142.3950  168.6887 C.ar    1  UNL1        0.0188
      9 C         142.5237  141.2362  167.7719 C.ar    1  UNL1        0.0789
     10 C         143.1428  139.1753  164.5415 C.3     1  UNL1        0.1199
     11 C         144.4559  139.3901  163.8492 C.3     1  UNL1        0.0871
     12 N         144.6717  138.8508  162.4662 N.3     1  UNL1       -0.2957
     13 C         143.5743  138.0968  161.7756 C.3     1  UNL1        0.0804
     14 C         142.2611  137.8820  162.4679 C.3     1  UNL1        0.0750
     15 S         142.0453  138.4213  163.8509 S.3     1  UNL1       -0.1306
     16 H         145.4738  138.2228  162.5169 H       1  UNL1        0.1233
     17 C         142.6157  142.3000  165.3214 C.3     1  UNL1        0.1339
     18 F         137.2877  144.4686  163.6157 F       1  UNL1       -0.2042
     19 C         138.6197  143.9265  164.0421 C.ar    1  UNL1        0.1401
     20 C         138.7242  142.5290  164.5772 C.ar    1  UNL1        0.0294
     21 C         140.0562  141.9869  165.0036 C.ar    1  UNL1       -0.0001
     22 C         141.2838  142.8422  164.8950 C.ar    1  UNL1        0.0006
     23 C         141.1792  144.2396  164.3599 C.ar    1  UNL1       -0.0001
     24 C         139.8472  144.7817  163.9335 C.ar    1  UNL1        0.0294
@<TRIPOS>BOND
     1    18    19    1
     2    19    20   ar
     3    20    21   ar
     4    21    22   ar
     5    22    17    1
     6    17     1    1
     7     1     2   ar
     8    10     2    1
     9    10    11    1
    10    11    12    1
    11    12    13    1
    12    13    14    1
    13    14    15    1
    14     2     3   ar
    15     3     4   ar
    16     4     5   ar
    17     5     6   ar
    18     6     7   ar
    19     7     8   ar
    20     8     9   ar
    21    22    23   ar
    22    23    24   ar
    23    24    19   ar
    24     9     1   ar
    25    15    10    1
    26     9     4   ar
    27    12    16    1
@<TRIPOS>MOLECULE
*****
 24 27 0 0 0
SMALL
GASTEIGER

@<TRIPOS>ATOM
      1 N         141.5781  139.7897  166.1942 N.ar    1  UNL1       -0.3100
      2 C         140.5290  139.9312  167.2569 C.ar    1  UNL1        0.1317
      3 N         139.2754  139.2735  166.7610 N.ar    1  UNL1       -0.2300
      4 C         139.5497  138.7255  165.3919 C.ar    1  UNL1        0.0984
      5 C         138.6875  137.9773  164.4189 C.ar    1  UNL1        0.0206
      6 C         139.2485  137.5481  163.0957 C.ar    1  UNL1        0.0016
      7 C         140.6717  137.8672  162.7454 C.ar    1  UNL1        0.0016
      8 C         141.5339  138.6154  163.7183 C.ar    1  UNL1        0.0188
      9 C         140.9729  139.0446  165.0416 C.ar    1  UNL1        0.0789
     10 C         140.7029  140.6110  168.5826 C.3     1  UNL1        0.1199
     11 C         141.0409  139.8037  169.8008 C.3     1  UNL1        0.0871
     12 N         141.2148  140.4835  171.1266 N.3     1  UNL1       -0.2957
     13 C         141.0508  141.9706  171.2341 C.3     1  UNL1        0.0804
     14 C         140.7128  142.7779  170.0160 C.3     1  UNL1        0.0750
     15 S         140.5389  142.0981  168.6902 S.3     1  UNL1       -0.1306
     16 H         142.1589  140.2675  171.4466 H       1  UNL1        0.1233
     17 C         142.9854  140.3032  166.2707 C.3     1  UNL1        0.1339
     18 F         144.8200  144.6002  162.5063 F       1  UNL1       -0.2042
     19 C         144.3614  143.5259  163.4474 C.ar    1  UNL1        0.1401
     20 C         143.1888  143.7704  164.3505 C.ar    1  UNL1        0.0294
     21 C         142.7302  142.6962  165.2915 C.ar    1  UNL1       -0.0001
     22 C         143.4441  141.3774  165.3296 C.ar    1  UNL1        0.0006
     23 C         144.6165  141.1330  164.4265 C.ar    1  UNL1       -0.0001
     24 C         145.0752  142.2072  163.4855 C.ar    1  UNL1        0.0294
@<TRIPOS>BOND
     1    18    19    1
     2    19    20   ar
     3    20    21   ar
     4    21    22   ar
     5    22    17    1
     6    17     1    1
     7     1     2   ar
     8    10     2    1
     9    10    11    1
    10    11    12    1
    11    12    13    1
    12    13    14    1
    13    14    15    1
    14     2     3   ar
    15     3     4   ar
    16     4     5   ar
    17     5     6   ar
    18     6     7   ar
    19     7     8   ar
    20     8     9   ar
    21    22    23   ar
    22    23    24   ar
    23    24    19   ar
    24     9     1   ar
    25    15    10    1
    26     9     4   ar
    27    12    16    1
