@<TRIPOS>MOLECULE
*****
 37 42 0 0 0
SMALL
GASTEIGER

@<TRIPOS>ATOM
      1 C         140.7565  139.9509  165.8397 C.3     1  UNL1        0.1023
      2 C         141.2643  140.6917  167.0411 C.2     1  UNL1       -0.0217
      3 C         142.5423  141.4722  166.9560 C.2     1  UNL1       -0.0050
      4 C         143.0502  142.2131  168.1574 C.2     1  UNL1        0.0201
      5 C         142.2798  142.1733  169.4439 C.2     1  UNL1        0.1007
      6 N         142.5306  142.7995  170.7837 N.2     1  UNL1       -0.1482
      7 N         141.4075  142.4060  171.6967 N.2     1  UNL1       -0.1467
      8 C         140.4626  141.5366  170.9213 C.2     1  UNL1        0.1197
      9 C         141.0017  141.3928  169.5289 C.2     1  UNL1        0.0216
     10 C         140.4940  140.6520  168.3275 C.3     1  UNL1        0.0466
     11 C         139.2159  139.8714  168.4126 C.3     1  UNL1        0.0245
     12 C         138.7081  139.1306  167.2112 C.3     1  UNL1        0.0588
     13 C         137.4300  138.3501  167.2963 C.3     1  UNL1        0.0174
     14 N         139.4785  139.1704  165.9247 N.3     1  UNL1       -0.2661
     15 C         141.2834  141.0943  163.5671 C.ar    1  UNL1        0.1375
     16 C         142.0538  141.1341  162.2805 C.ar    1  UNL1        0.0509
     17 C         143.0675  140.0702  161.9802 C.ar    1  UNL1        0.0477
     18 C         143.3110  138.9664  162.9664 C.ar    1  UNL1        0.0142
     19 C         142.5407  138.9266  164.2528 C.ar    1  UNL1        0.0016
     20 C         141.5268  139.9906  164.5532 C.ar    1  UNL1        0.0301
     21 C         140.7156  143.4972  164.3758 C.3     1  UNL1        0.2525
     22 O         140.2696  142.1583  163.8674 O.3     1  UNL1       -0.4716
     23 N         143.8379  140.1099  160.6938 N.pl3   1  UNL1       -0.3317
     24 H         144.5948  140.7312  160.5923 H       1  UNL1        0.1468
     25 C         143.4550  139.2031  159.5620 C.3     1  UNL1        0.1014
     26 C         143.3940  139.3374  158.0692 C.3     1  UNL1        0.0933
     27 N         142.9134  137.9206  157.9613 N.3     1  UNL1       -0.2697
     28 C         142.9743  137.7862  159.4541 C.3     1  UNL1        0.0933
     29 C         142.5304  137.0137  156.8296 C.3     1  UNL1        0.0751
     30 C         143.4940  135.9713  156.3449 C.3     1  UNL1        0.0554
     31 C         143.4408  134.5815  156.9069 C.3     1  UNL1        0.1947
     32 F         143.5537  134.3663  158.3871 F       1  UNL1       -0.2343
     33 C         138.9706  138.4295  164.7233 C.3     1  UNL1        0.1054
     34 C         138.3499  139.1830  163.5846 C.3     1  UNL1        0.1486
     35 F         137.6784  140.2909  164.3406 F       1  UNL1       -0.2386
     36 C         137.9623  139.5518  162.1833 C.3     1  UNL1        0.0368
     37 C         138.8058  138.3368  162.4330 C.3     1  UNL1        0.0368
@<TRIPOS>BOND
     1    21    22    1
     2    22    15    1
     3    15    16   ar
     4    16    17   ar
     5    17    23    1
     6    23    25    1
     7    25    26    1
     8    26    27    1
     9    27    29    1
    10    29    30    1
    11    30    31    1
    12    31    32    1
    13    27    28    1
    14    17    18   ar
    15    18    19   ar
    16    19    20   ar
    17     1    20    1
    18     1     2    1
    19     2     3    2
    20     3     4    1
    21     4     5    2
    22     5     6    1
    23     6     7    2
    24     7     8    1
    25     8     9    2
    26     9    10    1
    27    10    11    1
    28    11    12    1
    29    12    13    1
    30    12    14    1
    31    14    33    1
    32    33    34    1
    33    34    35    1
    34    34    36    1
    35    36    37    1
    36    20    15   ar
    37    14     1    1
    38    37    34    1
    39    28    25    1
    40    10     2    1
    41     9     5    1
    42    23    24    1
@<TRIPOS>MOLECULE
*****
 37 42 0 0 0
SMALL
GASTEIGER

@<TRIPOS>ATOM
      1 C         140.7797  140.0413  165.7970 C.3     1  UNL1        0.1023
      2 C         141.2630  140.7660  167.0182 C.2     1  UNL1       -0.0217
      3 C         142.5340  141.5607  166.9649 C.2     1  UNL1       -0.0050
      4 C         143.0173  142.2853  168.1861 C.2     1  UNL1        0.0201
      5 C         142.2296  142.2152  169.4606 C.2     1  UNL1        0.1007
      6 N         142.4552  142.8202  170.8146 N.2     1  UNL1       -0.1482
      7 N         141.3235  142.3994  171.7046 N.2     1  UNL1       -0.1467
      8 C         140.3986  141.5343  170.9009 C.2     1  UNL1        0.1197
      9 C         140.9585  141.4205  169.5140 C.2     1  UNL1        0.0216
     10 C         140.4753  140.6958  168.2928 C.3     1  UNL1        0.0466
     11 C         139.2042  139.9011  168.3461 C.3     1  UNL1        0.0245
     12 C         138.7210  139.1765  167.1249 C.3     1  UNL1        0.0588
     13 C         137.4499  138.3817  167.1783 C.3     1  UNL1        0.0174
     14 N         139.5087  139.2466  165.8503 N.3     1  UNL1       -0.2661
     15 C         142.6186  139.0813  164.2328 C.ar    1  UNL1        0.1375
     16 C         143.4065  139.1514  162.9582 C.ar    1  UNL1        0.0509
     17 C         143.1432  140.2516  161.9734 C.ar    1  UNL1        0.0477
     18 C         142.0920  141.2818  162.2629 C.ar    1  UNL1        0.0142
     19 C         141.3042  141.2117  163.5375 C.ar    1  UNL1        0.0016
     20 C         141.5675  140.1114  164.5225 C.ar    1  UNL1        0.0301
     21 C         143.9180  138.1636  166.2870 C.3     1  UNL1        0.2525
     22 O         142.8820  137.9810  165.2178 O.3     1  UNL1       -0.4716
     23 N         143.9309  140.3217  160.6988 N.pl3   1  UNL1       -0.3317
     24 H         144.7113  140.9185  160.6347 H       1  UNL1        0.1468
     25 C         143.5298  139.4825  159.5220 C.3     1  UNL1        0.1014
     26 C         143.0421  138.0758  159.3394 C.3     1  UNL1        0.0933
     27 N         142.9625  138.2957  157.8578 N.3     1  UNL1       -0.2697
     28 C         143.4501  139.7025  158.0404 C.3     1  UNL1        0.0933
     29 C         142.5613  137.4566  156.6809 C.3     1  UNL1        0.0751
     30 C         143.5582  136.5358  156.0419 C.3     1  UNL1        0.0554
     31 C         143.6368  135.1008  156.4717 C.3     1  UNL1        0.1947
     32 F         143.8987  134.0273  155.4574 F       1  UNL1       -0.2343
     33 C         139.0254  138.5219  164.6291 C.3     1  UNL1        0.1054
     34 C         138.3534  139.2808  163.5235 C.3     1  UNL1        0.1486
     35 F         137.7205  140.3872  164.3142 F       1  UNL1       -0.2386
     36 C         137.9011  139.6554  162.1433 C.3     1  UNL1        0.0368
     37 C         138.7528  138.4379  162.3488 C.3     1  UNL1        0.0368
@<TRIPOS>BOND
     1    21    22    1
     2    22    15    1
     3    15    16   ar
     4    16    17   ar
     5    17    23    1
     6    23    25    1
     7    25    26    1
     8    26    27    1
     9    27    29    1
    10    29    30    1
    11    30    31    1
    12    31    32    1
    13    27    28    1
    14    17    18   ar
    15    18    19   ar
    16    19    20   ar
    17     1    20    1
    18     1     2    1
    19     2     3    2
    20     3     4    1
    21     4     5    2
    22     5     6    1
    23     6     7    2
    24     7     8    1
    25     8     9    2
    26     9    10    1
    27    10    11    1
    28    11    12    1
    29    12    13    1
    30    12    14    1
    31    14    33    1
    32    33    34    1
    33    34    35    1
    34    34    36    1
    35    36    37    1
    36    20    15   ar
    37    14     1    1
    38    37    34    1
    39    28    25    1
    40    10     2    1
    41     9     5    1
    42    23    24    1
@<TRIPOS>MOLECULE
*****
 37 42 0 0 0
SMALL
GASTEIGER

@<TRIPOS>ATOM
      1 C         140.7777  139.9177  165.7934 C.3     1  UNL1        0.1023
      2 C         141.2853  140.6720  166.9866 C.2     1  UNL1       -0.0217
      3 C         142.5696  141.4415  166.8966 C.2     1  UNL1       -0.0050
      4 C         143.0772  142.1959  168.0898 C.2     1  UNL1        0.0201
      5 C         142.3003  142.1805  169.3728 C.2     1  UNL1        0.1007
      6 N         142.5493  142.8241  170.7046 N.2     1  UNL1       -0.1482
      7 N         141.4188  142.4522  171.6177 N.2     1  UNL1       -0.1467
      8 C         140.4711  141.5788  170.8501 C.2     1  UNL1        0.1197
      9 C         141.0159  141.4109  169.4627 C.2     1  UNL1        0.0216
     10 C         140.5084  140.6567  168.2696 C.3     1  UNL1        0.0466
     11 C         139.2240  139.8871  168.3595 C.3     1  UNL1        0.0245
     12 C         138.7165  139.1328  167.1664 C.3     1  UNL1        0.0588
     13 C         137.4321  138.3632  167.2564 C.3     1  UNL1        0.0174
     14 N         139.4934  139.1482  165.8834 N.3     1  UNL1       -0.2661
     15 C         141.3279  141.0270  163.5094 C.ar    1  UNL1        0.1375
     16 C         142.1049  141.0424  162.2263 C.ar    1  UNL1        0.0509
     17 C         143.1084  139.9638  161.9442 C.ar    1  UNL1        0.0477
     18 C         143.3351  138.8698  162.9452 C.ar    1  UNL1        0.0142
     19 C         142.5582  138.8545  164.2282 C.ar    1  UNL1        0.0016
     20 C         141.5546  139.9331  164.5104 C.ar    1  UNL1        0.0301
     21 C         140.7858  143.4612  164.2381 C.3     1  UNL1        0.2525
     22 O         140.3244  142.1056  163.7915 O.3     1  UNL1       -0.4716
     23 N         143.8853  139.9792  160.6612 N.pl3   1  UNL1       -0.3317
     24 H         144.7162  140.5031  160.5951 H       1  UNL1        0.1468
     25 C         143.3962  139.1963  159.4789 C.3     1  UNL1        0.1014
     26 C         142.8917  137.7997  159.2667 C.3     1  UNL1        0.0933
     27 N         142.7046  138.0891  157.8068 N.3     1  UNL1       -0.2697
     28 C         143.2090  139.4857  158.0190 C.3     1  UNL1        0.0933
     29 C         142.2155  137.3063  156.6244 C.3     1  UNL1        0.0751
     30 C         140.7442  137.1000  156.4182 C.3     1  UNL1        0.0554
     31 C         139.7585  138.0223  157.0724 C.3     1  UNL1        0.1947
     32 F         139.5649  137.9805  158.5592 F       1  UNL1       -0.2343
     33 C         138.9858  138.3939  164.6902 C.3     1  UNL1        0.1054
     34 C         138.3562  139.1337  163.5474 C.3     1  UNL1        0.1486
     35 F         137.7142  140.2663  164.2924 F       1  UNL1       -0.2386
     36 C         137.9494  139.4802  162.1458 C.3     1  UNL1        0.0368
     37 C         138.7794  138.2580  162.4055 C.3     1  UNL1        0.0368
@<TRIPOS>BOND
     1    21    22    1
     2    22    15    1
     3    15    16   ar
     4    16    17   ar
     5    17    23    1
     6    23    25    1
     7    25    26    1
     8    26    27    1
     9    27    29    1
    10    29    30    1
    11    30    31    1
    12    31    32    1
    13    27    28    1
    14    17    18   ar
    15    18    19   ar
    16    19    20   ar
    17     1    20    1
    18     1     2    1
    19     2     3    2
    20     3     4    1
    21     4     5    2
    22     5     6    1
    23     6     7    2
    24     7     8    1
    25     8     9    2
    26     9    10    1
    27    10    11    1
    28    11    12    1
    29    12    13    1
    30    12    14    1
    31    14    33    1
    32    33    34    1
    33    34    35    1
    34    34    36    1
    35    36    37    1
    36    20    15   ar
    37    14     1    1
    38    37    34    1
    39    28    25    1
    40    10     2    1
    41     9     5    1
    42    23    24    1
@<TRIPOS>MOLECULE
*****
 37 42 0 0 0
SMALL
GASTEIGER

@<TRIPOS>ATOM
      1 C         141.9620  141.6333  165.7411 C.3     1  UNL1        0.1023
      2 C         141.4839  141.8827  167.1409 C.2     1  UNL1       -0.0217
      3 C         140.7243  143.1356  167.4619 C.2     1  UNL1       -0.0050
      4 C         140.2461  143.3850  168.8617 C.2     1  UNL1        0.0201
      5 C         140.5276  142.3814  169.9403 C.2     1  UNL1        0.1007
      6 N         140.1849  142.3545  171.4004 N.2     1  UNL1       -0.1482
      7 N         140.7328  141.0848  171.9817 N.2     1  UNL1       -0.1467
      8 C         141.4141  140.3271  170.8809 C.2     1  UNL1        0.1197
      9 C         141.2873  141.1285  169.6192 C.2     1  UNL1        0.0216
     10 C         141.7654  140.8791  168.2195 C.3     1  UNL1        0.0466
     11 C         142.5250  139.6262  167.8984 C.3     1  UNL1        0.0245
     12 C         143.0031  139.3769  166.4987 C.3     1  UNL1        0.0588
     13 C         143.7628  138.1239  166.1777 C.3     1  UNL1        0.0174
     14 N         142.7216  140.3805  165.4201 N.3     1  UNL1       -0.2661
     15 C         140.4725  142.4786  163.7875 C.ar    1  UNL1        0.1375
     16 C         140.1909  143.4823  162.7088 C.ar    1  UNL1        0.0509
     17 C         141.1173  144.6442  162.5051 C.ar    1  UNL1        0.0477
     18 C         142.3254  144.8026  163.3801 C.ar    1  UNL1        0.0142
     19 C         142.6069  143.7990  164.4587 C.ar    1  UNL1        0.0016
     20 C         141.6805  142.6370  164.6625 C.ar    1  UNL1        0.0301
     21 C         138.2907  141.4901  164.7937 C.3     1  UNL1        0.2525
     22 O         139.5460  141.3167  163.9912 O.3     1  UNL1       -0.4716
     23 N         140.8358  145.6478  161.4265 N.pl3   1  UNL1       -0.3317
     24 H         140.7521  146.6024  161.6520 H       1  UNL1        0.1468
     25 C         140.6818  145.1969  160.0041 C.3     1  UNL1        0.1014
     26 C         141.2618  145.6223  158.6879 C.3     1  UNL1        0.0933
     27 N         140.4639  144.5592  157.9927 N.3     1  UNL1       -0.2697
     28 C         139.8838  144.1339  159.3090 C.3     1  UNL1        0.0933
     29 C         140.3098  144.1083  156.5704 C.3     1  UNL1        0.0751
     30 C         139.1472  144.5884  155.7532 C.3     1  UNL1        0.0554
     31 C         138.9953  146.0499  155.4514 C.3     1  UNL1        0.1947
     32 F         140.0684  147.0154  155.8591 F       1  UNL1       -0.2343
     33 C         143.1998  140.1311  164.0203 C.3     1  UNL1        0.1054
     34 C         144.3934  140.8704  163.4926 C.3     1  UNL1        0.1486
     35 F         145.2991  140.7881  164.6854 F       1  UNL1       -0.2386
     36 C         145.2725  141.6383  162.5505 C.3     1  UNL1        0.0368
     37 C         143.9022  141.2094  162.1164 C.3     1  UNL1        0.0368
@<TRIPOS>BOND
     1    21    22    1
     2    22    15    1
     3    15    16   ar
     4    16    17   ar
     5    17    23    1
     6    23    25    1
     7    25    26    1
     8    26    27    1
     9    27    29    1
    10    29    30    1
    11    30    31    1
    12    31    32    1
    13    27    28    1
    14    17    18   ar
    15    18    19   ar
    16    19    20   ar
    17     1    20    1
    18     1     2    1
    19     2     3    2
    20     3     4    1
    21     4     5    2
    22     5     6    1
    23     6     7    2
    24     7     8    1
    25     8     9    2
    26     9    10    1
    27    10    11    1
    28    11    12    1
    29    12    13    1
    30    12    14    1
    31    14    33    1
    32    33    34    1
    33    34    35    1
    34    34    36    1
    35    36    37    1
    36    20    15   ar
    37    14     1    1
    38    37    34    1
    39    28    25    1
    40    10     2    1
    41     9     5    1
    42    23    24    1
@<TRIPOS>MOLECULE
*****
 37 42 0 0 0
SMALL
GASTEIGER

@<TRIPOS>ATOM
      1 C         140.8457  140.0956  165.7837 C.3     1  UNL1        0.1023
      2 C         141.3475  140.8080  167.0047 C.2     1  UNL1       -0.0217
      3 C         142.6168  141.6046  166.9398 C.2     1  UNL1       -0.0050
      4 C         143.1185  142.3170  168.1608 C.2     1  UNL1        0.0201
      5 C         142.3509  142.2328  169.4467 C.2     1  UNL1        0.1007
      6 N         142.5972  142.8238  170.8032 N.2     1  UNL1       -0.1482
      7 N         141.4800  142.3925  171.7064 N.2     1  UNL1       -0.1467
      8 C         140.5433  141.5349  170.9083 C.2     1  UNL1        0.1197
      9 C         141.0816  141.4362  169.5117 C.2     1  UNL1        0.0216
     10 C         140.5799  140.7238  168.2907 C.3     1  UNL1        0.0466
     11 C         139.3105  139.9272  168.3556 C.3     1  UNL1        0.0245
     12 C         138.8088  139.2148  167.1346 C.3     1  UNL1        0.0588
     13 C         137.5394  138.4183  167.1997 C.3     1  UNL1        0.0174
     14 N         139.5764  139.2991  165.8487 N.3     1  UNL1       -0.2661
     15 C         141.3537  141.3062  163.5418 C.ar    1  UNL1        0.1375
     16 C         142.1214  141.3904  162.2558 C.ar    1  UNL1        0.0509
     17 C         143.1486  140.3484  161.9259 C.ar    1  UNL1        0.0477
     18 C         143.4082  139.2220  162.8819 C.ar    1  UNL1        0.0142
     19 C         142.6406  139.1378  164.1678 C.ar    1  UNL1        0.0016
     20 C         141.6133  140.1799  164.4978 C.ar    1  UNL1        0.0301
     21 C         139.5692  143.0299  162.7708 C.3     1  UNL1        0.2525
     22 O         140.3264  142.3483  163.8717 O.3     1  UNL1       -0.4716
     23 N         143.9162  140.4327  160.6399 N.pl3   1  UNL1       -0.3317
     24 H         144.6473  139.7982  160.4606 H       1  UNL1        0.1468
     25 C         143.5698  141.4836  159.6272 C.3     1  UNL1        0.1014
     26 C         142.4685  141.6697  158.6260 C.3     1  UNL1        0.0933
     27 N         143.0801  142.9698  158.1949 N.3     1  UNL1       -0.2697
     28 C         144.1814  142.7836  159.1961 C.3     1  UNL1        0.0933
     29 C         142.7338  144.0207  157.1822 C.3     1  UNL1        0.0751
     30 C         142.1618  145.3334  157.6291 C.3     1  UNL1        0.0554
     31 C         141.1098  145.3681  158.6979 C.3     1  UNL1        0.1947
     32 F         141.4358  144.9041  160.0865 F       1  UNL1       -0.2343
     33 C         139.0746  138.5867  164.6277 C.3     1  UNL1        0.1054
     34 C         138.3561  139.3510  163.5557 C.3     1  UNL1        0.1486
     35 F         137.8545  140.5152  164.3574 F       1  UNL1       -0.2386
     36 C         137.8117  139.7110  162.2051 C.3     1  UNL1        0.0368
     37 C         138.6081  138.4522  162.3815 C.3     1  UNL1        0.0368
@<TRIPOS>BOND
     1    21    22    1
     2    22    15    1
     3    15    16   ar
     4    16    17   ar
     5    17    23    1
     6    23    25    1
     7    25    26    1
     8    26    27    1
     9    27    29    1
    10    29    30    1
    11    30    31    1
    12    31    32    1
    13    27    28    1
    14    17    18   ar
    15    18    19   ar
    16    19    20   ar
    17     1    20    1
    18     1     2    1
    19     2     3    2
    20     3     4    1
    21     4     5    2
    22     5     6    1
    23     6     7    2
    24     7     8    1
    25     8     9    2
    26     9    10    1
    27    10    11    1
    28    11    12    1
    29    12    13    1
    30    12    14    1
    31    14    33    1
    32    33    34    1
    33    34    35    1
    34    34    36    1
    35    36    37    1
    36    20    15   ar
    37    14     1    1
    38    37    34    1
    39    28    25    1
    40    10     2    1
    41     9     5    1
    42    23    24    1
@<TRIPOS>MOLECULE
*****
 37 42 0 0 0
SMALL
GASTEIGER

@<TRIPOS>ATOM
      1 C         141.5579  140.8893  165.6055 C.3     1  UNL1        0.1023
      2 C         141.2866  141.4581  166.9667 C.2     1  UNL1       -0.0217
      3 C         140.4010  142.6596  167.1147 C.2     1  UNL1       -0.0050
      4 C         140.1298  143.2284  168.4760 C.2     1  UNL1        0.0201
      5 C         140.7442  142.5956  169.6892 C.2     1  UNL1        0.1007
      6 N         140.6589  142.9317  171.1486 N.2     1  UNL1       -0.1482
      7 N         141.4919  141.9379  171.9025 N.2     1  UNL1       -0.1467
      8 C         142.0919  140.9875  170.9092 C.2     1  UNL1        0.1197
      9 C         141.6298  141.3940  169.5412 C.2     1  UNL1        0.0216
     10 C         141.9010  140.8253  168.1800 C.3     1  UNL1        0.0466
     11 C         142.7867  139.6237  168.0320 C.3     1  UNL1        0.0245
     12 C         143.0579  139.0550  166.6708 C.3     1  UNL1        0.0588
     13 C         143.9435  137.8534  166.5229 C.3     1  UNL1        0.0174
     14 N         142.4435  139.6878  165.4575 N.3     1  UNL1       -0.2661
     15 C         141.6648  142.6242  163.6745 C.ar    1  UNL1        0.1375
     16 C         141.0504  143.2571  162.4612 C.ar    1  UNL1        0.0509
     17 C         139.7147  142.7879  161.9657 C.ar    1  UNL1        0.0477
     18 C         138.9933  141.6858  162.6834 C.ar    1  UNL1        0.0142
     19 C         139.6077  141.0530  163.8966 C.ar    1  UNL1        0.0016
     20 C         140.9435  141.5222  164.3922 C.ar    1  UNL1        0.0301
     21 C         143.4612  144.4903  163.8761 C.3     1  UNL1        0.2525
     22 O         143.0006  143.0934  164.1701 O.3     1  UNL1       -0.4716
     23 N         139.1003  143.4208  160.7524 N.pl3   1  UNL1       -0.3317
     24 H         138.1242  143.3971  160.6258 H       1  UNL1        0.1468
     25 C         139.9729  144.0897  159.7321 C.3     1  UNL1        0.1014
     26 C         140.8769  143.6136  158.6339 C.3     1  UNL1        0.0933
     27 N         141.2071  145.0357  158.2892 N.3     1  UNL1       -0.2697
     28 C         140.3031  145.5117  159.3874 C.3     1  UNL1        0.0933
     29 C         142.0798  145.7047  157.2689 C.3     1  UNL1        0.0751
     30 C         141.6287  145.7974  155.8414 C.3     1  UNL1        0.0554
     31 C         140.3435  146.4939  155.5046 C.3     1  UNL1        0.1947
     32 F         139.5976  147.2462  156.5665 F       1  UNL1       -0.2343
     33 C         142.7147  139.1190  164.0963 C.3     1  UNL1        0.1054
     34 C         141.7186  138.1984  163.4560 C.3     1  UNL1        0.1486
     35 F         141.0698  137.6243  164.6805 F       1  UNL1       -0.2386
     36 C         140.9478  137.4770  162.3904 C.3     1  UNL1        0.0368
     37 C         142.0215  138.4526  162.0091 C.3     1  UNL1        0.0368
@<TRIPOS>BOND
     1    21    22    1
     2    22    15    1
     3    15    16   ar
     4    16    17   ar
     5    17    23    1
     6    23    25    1
     7    25    26    1
     8    26    27    1
     9    27    29    1
    10    29    30    1
    11    30    31    1
    12    31    32    1
    13    27    28    1
    14    17    18   ar
    15    18    19   ar
    16    19    20   ar
    17     1    20    1
    18     1     2    1
    19     2     3    2
    20     3     4    1
    21     4     5    2
    22     5     6    1
    23     6     7    2
    24     7     8    1
    25     8     9    2
    26     9    10    1
    27    10    11    1
    28    11    12    1
    29    12    13    1
    30    12    14    1
    31    14    33    1
    32    33    34    1
    33    34    35    1
    34    34    36    1
    35    36    37    1
    36    20    15   ar
    37    14     1    1
    38    37    34    1
    39    28    25    1
    40    10     2    1
    41     9     5    1
    42    23    24    1
@<TRIPOS>MOLECULE
*****
 37 42 0 0 0
SMALL
GASTEIGER

@<TRIPOS>ATOM
      1 C         139.9317  141.3518  165.7072 C.3     1  UNL1        0.1023
      2 C         140.3194  141.6143  167.1323 C.2     1  UNL1       -0.0217
      3 C         141.1283  142.8293  167.4778 C.2     1  UNL1       -0.0050
      4 C         141.5160  143.0918  168.9029 C.2     1  UNL1        0.0201
      5 C         141.0948  142.1393  169.9824 C.2     1  UNL1        0.1007
      6 N         141.3263  142.1359  171.4644 N.2     1  UNL1       -0.1482
      7 N         140.6605  140.9188  172.0348 N.2     1  UNL1       -0.1467
      8 C         140.0174  140.1700  170.9053 C.2     1  UNL1        0.1197
      9 C         140.2858  140.9243  169.6368 C.2     1  UNL1        0.0216
     10 C         139.8981  140.6618  168.2118 C.3     1  UNL1        0.0466
     11 C         139.0892  139.4469  167.8662 C.3     1  UNL1        0.0245
     12 C         138.7015  139.1844  166.4411 C.3     1  UNL1        0.0588
     13 C         137.8925  137.9693  166.0956 C.3     1  UNL1        0.0174
     14 N         139.1228  140.1369  165.3616 N.3     1  UNL1       -0.2661
     15 C         141.6640  142.1096  163.9255 C.ar    1  UNL1        0.1375
     16 C         142.0853  143.0622  162.8459 C.ar    1  UNL1        0.0509
     17 C         141.1956  144.2093  162.4687 C.ar    1  UNL1        0.0477
     18 C         139.8845  144.4040  163.1710 C.ar    1  UNL1        0.0142
     19 C         139.4632  143.4515  164.2505 C.ar    1  UNL1        0.0016
     20 C         140.3529  142.3043  164.6277 C.ar    1  UNL1        0.0301
     21 C         143.8727  140.7778  163.6124 C.3     1  UNL1        0.2525
     22 O         142.5538  140.9624  164.3027 O.3     1  UNL1       -0.4716
     23 N         141.6169  145.1618  161.3893 N.pl3   1  UNL1       -0.3317
     24 H         142.2204  145.9102  161.6012 H       1  UNL1        0.1468
     25 C         141.1186  144.9740  159.9870 C.3     1  UNL1        0.1014
     26 C         141.5458  145.4638  158.6351 C.3     1  UNL1        0.0933
     27 N         140.4140  144.7084  158.0038 N.3     1  UNL1       -0.2697
     28 C         139.9868  144.2187  159.3557 C.3     1  UNL1        0.0933
     29 C         139.9157  144.5206  156.6015 C.3     1  UNL1        0.0751
     30 C         139.0021  145.5396  155.9875 C.3     1  UNL1        0.0554
     31 C         139.3022  147.0018  156.1353 C.3     1  UNL1        0.1947
     32 F         139.8408  147.7784  154.9705 F       1  UNL1       -0.2343
     33 C         138.7350  139.8743  163.9365 C.3     1  UNL1        0.1054
     34 C         139.5359  138.9162  163.1057 C.3     1  UNL1        0.1486
     35 F         140.6502  138.6104  164.0622 F       1  UNL1       -0.2386
     36 C         139.9500  138.0642  161.9427 C.3     1  UNL1        0.0368
     37 C         138.6999  138.8892  161.8607 C.3     1  UNL1        0.0368
@<TRIPOS>BOND
     1    21    22    1
     2    22    15    1
     3    15    16   ar
     4    16    17   ar
     5    17    23    1
     6    23    25    1
     7    25    26    1
     8    26    27    1
     9    27    29    1
    10    29    30    1
    11    30    31    1
    12    31    32    1
    13    27    28    1
    14    17    18   ar
    15    18    19   ar
    16    19    20   ar
    17     1    20    1
    18     1     2    1
    19     2     3    2
    20     3     4    1
    21     4     5    2
    22     5     6    1
    23     6     7    2
    24     7     8    1
    25     8     9    2
    26     9    10    1
    27    10    11    1
    28    11    12    1
    29    12    13    1
    30    12    14    1
    31    14    33    1
    32    33    34    1
    33    34    35    1
    34    34    36    1
    35    36    37    1
    36    20    15   ar
    37    14     1    1
    38    37    34    1
    39    28    25    1
    40    10     2    1
    41     9     5    1
    42    23    24    1
@<TRIPOS>MOLECULE
*****
 37 42 0 0 0
SMALL
GASTEIGER

@<TRIPOS>ATOM
      1 C         141.1207  140.6030  165.8868 C.3     1  UNL1        0.1023
      2 C         141.4206  141.1308  167.2585 C.2     1  UNL1       -0.0217
      3 C         142.6280  141.9918  167.4834 C.2     1  UNL1       -0.0050
      4 C         142.9280  142.5197  168.8551 C.2     1  UNL1        0.0201
      5 C         142.0203  142.1864  170.0019 C.2     1  UNL1        0.1007
      6 N         142.0598  142.5593  171.4543 N.2     1  UNL1       -0.1482
      7 N         140.8767  141.9287  172.1270 N.2     1  UNL1       -0.1467
      8 C         140.1060  141.1661  171.0904 C.2     1  UNL1        0.1197
      9 C         140.8129  141.3254  169.7770 C.2     1  UNL1        0.0216
     10 C         140.5130  140.7976  168.4053 C.3     1  UNL1        0.0466
     11 C         139.3055  139.9365  168.1804 C.3     1  UNL1        0.0245
     12 C         139.0056  139.4088  166.8087 C.3     1  UNL1        0.0588
     13 C         137.7981  138.5477  166.5839 C.3     1  UNL1        0.0174
     14 N         139.9133  139.7420  165.6620 N.3     1  UNL1       -0.2661
     15 C         141.7070  142.0932  163.8410 C.ar    1  UNL1        0.1375
     16 C         142.6147  142.4265  162.6941 C.ar    1  UNL1        0.0509
     17 C         143.8435  141.6029  162.4464 C.ar    1  UNL1        0.0477
     18 C         144.1649  140.4460  163.3455 C.ar    1  UNL1        0.0142
     19 C         143.2573  140.1127  164.4922 C.ar    1  UNL1        0.0016
     20 C         142.0283  140.9363  164.7400 C.ar    1  UNL1        0.0301
     21 C         140.6007  144.3909  164.3377 C.3     1  UNL1        0.2525
     22 O         140.4781  142.9168  164.0887 O.3     1  UNL1       -0.4716
     23 N         144.7512  141.9362  161.2996 N.pl3   1  UNL1       -0.3317
     24 H         145.6815  142.2086  161.4713 H       1  UNL1        0.1468
     25 C         144.2413  141.8544  159.8913 C.3     1  UNL1        0.1014
     26 C         143.1763  141.0617  159.1932 C.3     1  UNL1        0.0933
     27 N         143.5202  141.7388  157.8996 N.3     1  UNL1       -0.2697
     28 C         144.5852  142.5315  158.5978 C.3     1  UNL1        0.0933
     29 C         143.0104  141.6571  156.4913 C.3     1  UNL1        0.0751
     30 C         142.6542  140.3259  155.8987 C.3     1  UNL1        0.0554
     31 C         143.6349  139.1924  155.9570 C.3     1  UNL1        0.1947
     32 F         143.3715  138.0181  156.8523 F       1  UNL1       -0.2343
     33 C         139.6133  139.2142  164.2902 C.3     1  UNL1        0.1054
     34 C         140.4584  138.1216  163.7057 C.3     1  UNL1        0.1486
     35 F         140.6261  137.2476  164.9132 F       1  UNL1       -0.2386
     36 C         141.2454  137.3324  162.7018 C.3     1  UNL1        0.0368
     37 C         140.5843  138.6160  162.2952 C.3     1  UNL1        0.0368
@<TRIPOS>BOND
     1    21    22    1
     2    22    15    1
     3    15    16   ar
     4    16    17   ar
     5    17    23    1
     6    23    25    1
     7    25    26    1
     8    26    27    1
     9    27    29    1
    10    29    30    1
    11    30    31    1
    12    31    32    1
    13    27    28    1
    14    17    18   ar
    15    18    19   ar
    16    19    20   ar
    17     1    20    1
    18     1     2    1
    19     2     3    2
    20     3     4    1
    21     4     5    2
    22     5     6    1
    23     6     7    2
    24     7     8    1
    25     8     9    2
    26     9    10    1
    27    10    11    1
    28    11    12    1
    29    12    13    1
    30    12    14    1
    31    14    33    1
    32    33    34    1
    33    34    35    1
    34    34    36    1
    35    36    37    1
    36    20    15   ar
    37    14     1    1
    38    37    34    1
    39    28    25    1
    40    10     2    1
    41     9     5    1
    42    23    24    1
@<TRIPOS>MOLECULE
*****
 37 42 0 0 0
SMALL
GASTEIGER

@<TRIPOS>ATOM
      1 C         141.1178  141.4292  165.4499 C.3     1  UNL1        0.1023
      2 C         141.2350  141.2140  166.9299 C.2     1  UNL1       -0.0217
      3 C         141.9890  140.0299  167.4581 C.2     1  UNL1       -0.0050
      4 C         142.1062  139.8146  168.9381 C.2     1  UNL1        0.0201
      5 C         141.4694  140.7837  169.8895 C.2     1  UNL1        0.1007
      6 N         141.4171  140.8317  171.3879 N.2     1  UNL1       -0.1482
      7 N         140.6307  142.0456  171.7855 N.2     1  UNL1       -0.1467
      8 C         140.1970  142.7478  170.5330 C.2     1  UNL1        0.1197
      9 C         140.7153  141.9679  169.3612 C.2     1  UNL1        0.0216
     10 C         140.5981  142.1830  167.8813 C.3     1  UNL1        0.0466
     11 C         139.8441  143.3672  167.3530 C.3     1  UNL1        0.0245
     12 C         139.7269  143.5824  165.8731 C.3     1  UNL1        0.0588
     13 C         138.9729  144.7666  165.3449 C.3     1  UNL1        0.0174
     14 N         140.3638  142.6133  164.9216 N.3     1  UNL1       -0.2661
     15 C         143.1813  140.6512  164.0764 C.ar    1  UNL1        0.1375
     16 C         143.8182  139.6821  163.1249 C.ar    1  UNL1        0.0509
     17 C         143.0284  138.5220  162.5954 C.ar    1  UNL1        0.0477
     18 C         141.6017  138.3309  163.0174 C.ar    1  UNL1        0.0142
     19 C         140.9648  139.3000  163.9689 C.ar    1  UNL1        0.0016
     20 C         141.7546  140.4601  164.4984 C.ar    1  UNL1        0.0301
     21 C         145.2013  142.2735  163.8828 C.3     1  UNL1        0.2525
     22 O         143.9711  141.8113  164.6059 O.3     1  UNL1       -0.4716
     23 N         143.6653  137.5530  161.6439 N.pl3   1  UNL1       -0.3317
     24 H         144.3586  136.9319  161.9645 H       1  UNL1        0.1468
     25 C         143.2457  137.5302  160.2040 C.3     1  UNL1        0.1014
     26 C         142.8840  138.5728  159.1880 C.3     1  UNL1        0.0933
     27 N         142.6524  137.4980  158.1676 N.3     1  UNL1       -0.2697
     28 C         143.0142  136.4555  159.1835 C.3     1  UNL1        0.0933
     29 C         142.2329  137.4752  156.7276 C.3     1  UNL1        0.0751
     30 C         141.4577  136.3086  156.1907 C.3     1  UNL1        0.0554
     31 C         142.1776  135.0690  155.7493 C.3     1  UNL1        0.1947
     32 F         141.5083  133.7316  155.8651 F       1  UNL1       -0.2343
     33 C         140.2465  142.8285  163.4417 C.3     1  UNL1        0.1054
     34 C         141.3968  143.4106  162.6751 C.3     1  UNL1        0.1486
     35 F         141.9338  144.3677  163.6977 F       1  UNL1       -0.2386
     36 C         142.3607  143.6605  161.5532 C.3     1  UNL1        0.0368
     37 C         141.2594  142.6558  161.3862 C.3     1  UNL1        0.0368
@<TRIPOS>BOND
     1    21    22    1
     2    22    15    1
     3    15    16   ar
     4    16    17   ar
     5    17    23    1
     6    23    25    1
     7    25    26    1
     8    26    27    1
     9    27    29    1
    10    29    30    1
    11    30    31    1
    12    31    32    1
    13    27    28    1
    14    17    18   ar
    15    18    19   ar
    16    19    20   ar
    17     1    20    1
    18     1     2    1
    19     2     3    2
    20     3     4    1
    21     4     5    2
    22     5     6    1
    23     6     7    2
    24     7     8    1
    25     8     9    2
    26     9    10    1
    27    10    11    1
    28    11    12    1
    29    12    13    1
    30    12    14    1
    31    14    33    1
    32    33    34    1
    33    34    35    1
    34    34    36    1
    35    36    37    1
    36    20    15   ar
    37    14     1    1
    38    37    34    1
    39    28    25    1
    40    10     2    1
    41     9     5    1
    42    23    24    1
