@<TRIPOS>MOLECULE
*****
 36 38 0 0 0
SMALL
GASTEIGER

@<TRIPOS>ATOM
      1 C         141.4793  142.8986  162.4093 C.2     1  UNL1        0.2486
      2 O         140.7761  141.5960  162.6514 O.2     1  UNL1       -0.2726
      3 N         141.9947  143.6993  163.5682 N.am    1  UNL1       -0.2823
      4 H         142.4562  144.5543  163.4094 H       1  UNL1        0.1549
      5 C         144.0437  141.9818  157.4880 C.ar    1  UNL1        0.1054
      6 C         144.1509  141.1506  158.7320 C.ar    1  UNL1        0.0181
      7 C         143.3922  141.5441  159.9646 C.ar    1  UNL1       -0.0011
      8 C         142.5262  142.7687  159.9533 C.ar    1  UNL1        0.0023
      9 C         142.4189  143.5999  158.7093 C.ar    1  UNL1       -0.0030
     10 C         143.1777  143.2065  157.4766 C.ar    1  UNL1        0.0155
     11 C         141.4936  144.7454  158.9955 C.3     1  UNL1        0.1211
     12 N         141.0290  144.6221  160.4163 N.am    1  UNL1       -0.2582
     13 C         140.0909  145.5563  161.1215 C.2     1  UNL1        0.3037
     14 O         139.5290  146.7433  160.3967 O.2     1  UNL1       -0.2649
     15 C         141.6672  143.4004  161.0083 C.3     1  UNL1        0.1754
     16 C         145.5612  141.1948  155.0226 C.3     1  UNL1        0.1816
     17 S         144.8025  141.5883  156.2553 S.O2    1  UNL1        0.0104
     18 O         145.1765  140.2871  156.9009 O.2     1  UNL1       -0.1686
     19 O         144.4285  142.8896  155.6097 O.2     1  UNL1       -0.1686
     20 C         141.8068  143.1975  164.9693 C.ar    1  UNL1        0.0503
     21 C         140.4695  143.3213  165.6373 C.ar    1  UNL1        0.0144
     22 C         140.2816  142.8194  167.0383 C.ar    1  UNL1       -0.0002
     23 C         141.4310  142.1938  167.7713 C.ar    1  UNL1        0.0182
     24 C         142.7683  142.0700  167.1033 C.ar    1  UNL1       -0.0002
     25 C         142.9562  142.5718  165.7023 C.ar    1  UNL1        0.0144
     26 C         141.2431  141.6919  169.1723 C.3     1  UNL1        0.2827
     27 O         141.4828  140.2880  168.7016 O.3     1  UNL1       -0.3692
     28 H         141.6490  140.2914  167.7460 H       1  UNL1        0.2112
     29 C         141.0553  141.1901  170.5733 C.3     1  UNL1        0.4311
     30 F         140.8674  140.6882  171.9744 F       1  UNL1       -0.1669
     31 F         141.7660  141.5844  170.9255 F       1  UNL1       -0.1669
     32 F         139.8196  140.4557  170.1446 F       1  UNL1       -0.1669
     33 C         141.0034  143.0958  169.6431 C.3     1  UNL1        0.4311
     34 F         140.7637  144.4997  170.1138 F       1  UNL1       -0.1669
     35 F         141.8157  143.4064  169.4747 F       1  UNL1       -0.1669
     36 F         139.5722  143.0887  170.0919 F       1  UNL1       -0.1669
@<TRIPOS>BOND
     1    16    17    1
     2    17    18    2
     3    17    19    2
     4    17     5    1
     5     5     6   ar
     6     6     7   ar
     7     7     8   ar
     8     8     9   ar
     9     9    10   ar
    10     9    11    1
    11    11    12    1
    12    12    13   am
    13    13    14    2
    14    12    15    1
    15    15     1    1
    16     1     2    2
    17     1     3   am
    18     3    20    1
    19    20    21   ar
    20    21    22   ar
    21    22    23   ar
    22    23    26    1
    23    26    27    1
    24    26    29    1
    25    29    30    1
    26    29    31    1
    27    29    32    1
    28    26    33    1
    29    33    34    1
    30    33    35    1
    31    33    36    1
    32    23    24   ar
    33    24    25   ar
    34    10     5   ar
    35    25    20   ar
    36    15     8    1
    37     3     4    1
    38    27    28    1
@<TRIPOS>MOLECULE
*****
 36 38 0 0 0
SMALL
GASTEIGER

@<TRIPOS>ATOM
      1 C         138.9252  142.3971  161.8287 C.2     1  UNL1        0.2486
      2 O         137.7890  143.3634  161.6696 O.2     1  UNL1       -0.2726
      3 N         140.0514  142.3940  160.8379 N.am    1  UNL1       -0.2823
      4 H         140.7971  141.7598  160.9423 H       1  UNL1        0.1549
      5 C         140.1409  141.7373  167.2806 C.ar    1  UNL1        0.1054
      6 C         140.3019  142.9845  166.4629 C.ar    1  UNL1        0.0181
      7 C         139.9252  142.9832  165.0110 C.ar    1  UNL1       -0.0011
      8 C         139.3876  141.7348  164.3767 C.ar    1  UNL1        0.0023
      9 C         139.2266  140.4876  165.1944 C.ar    1  UNL1       -0.0030
     10 C         139.6033  140.4889  166.6464 C.ar    1  UNL1        0.0155
     11 C         138.6747  139.4159  164.3016 C.3     1  UNL1        0.1211
     12 N         138.4947  140.0008  162.9322 N.am    1  UNL1       -0.2582
     13 C         137.9667  139.2793  161.7276 C.2     1  UNL1        0.3037
     14 O         137.5634  137.8384  161.8336 O.2     1  UNL1       -0.2649
     15 C         138.9352  141.4339  162.9786 C.3     1  UNL1        0.1754
     16 C         140.8943  141.7399  170.1845 C.3     1  UNL1        0.1816
     17 S         140.5176  141.7386  168.7325 S.O2    1  UNL1        0.0104
     18 O         140.4999  143.2385  168.7358 O.2     1  UNL1       -0.1686
     19 O         140.5354  140.2387  168.7292 O.2     1  UNL1       -0.1686
     20 C         140.0414  143.3572  159.6881 C.ar    1  UNL1        0.0503
     21 C         139.3215  143.0042  158.4203 C.ar    1  UNL1        0.0144
     22 C         139.3115  143.9674  157.2704 C.ar    1  UNL1       -0.0002
     23 C         140.0213  145.2835  157.3883 C.ar    1  UNL1        0.0182
     24 C         140.7411  145.6365  158.6560 C.ar    1  UNL1       -0.0002
     25 C         140.7511  144.6733  159.8059 C.ar    1  UNL1        0.0144
     26 C         140.0112  146.2467  156.2384 C.3     1  UNL1        0.2827
     27 O         139.4248  147.3025  157.1279 O.3     1  UNL1       -0.3692
     28 H         139.3045  146.9429  158.0207 H       1  UNL1        0.2112
     29 C         140.0012  147.2099  155.0886 C.3     1  UNL1        0.4311
     30 F         139.9912  148.1730  153.9387 F       1  UNL1       -0.1669
     31 F         140.8789  147.3107  155.0246 F       1  UNL1       -0.1669
     32 F         138.5025  147.1561  155.0566 F       1  UNL1       -0.1669
     33 C         140.5977  145.1909  155.3489 C.3     1  UNL1        0.4311
     34 F         141.1841  144.1350  154.4593 F       1  UNL1       -0.1669
     35 F         139.8682  145.0346  154.8713 F       1  UNL1       -0.1669
     36 F         142.0171  145.0682  155.8182 F       1  UNL1       -0.1669
@<TRIPOS>BOND
     1    16    17    1
     2    17    18    2
     3    17    19    2
     4    17     5    1
     5     5     6   ar
     6     6     7   ar
     7     7     8   ar
     8     8     9   ar
     9     9    10   ar
    10     9    11    1
    11    11    12    1
    12    12    13   am
    13    13    14    2
    14    12    15    1
    15    15     1    1
    16     1     2    2
    17     1     3   am
    18     3    20    1
    19    20    21   ar
    20    21    22   ar
    21    22    23   ar
    22    23    26    1
    23    26    27    1
    24    26    29    1
    25    29    30    1
    26    29    31    1
    27    29    32    1
    28    26    33    1
    29    33    34    1
    30    33    35    1
    31    33    36    1
    32    23    24   ar
    33    24    25   ar
    34    10     5   ar
    35    25    20   ar
    36    15     8    1
    37     3     4    1
    38    27    28    1
@<TRIPOS>MOLECULE
*****
 36 38 0 0 0
SMALL
GASTEIGER

@<TRIPOS>ATOM
      1 C         141.8925  138.0009  158.0182 C.2     1  UNL1        0.2486
      2 O         140.8079  138.3733  158.9851 O.2     1  UNL1       -0.2726
      3 N         143.2977  138.4720  158.2498 N.am    1  UNL1       -0.2823
      4 H         144.0097  138.2276  157.6152 H       1  UNL1        0.1549
      5 C         143.0423  133.2048  155.3143 C.ar    1  UNL1        0.1054
      6 C         143.6543  133.6897  156.5950 C.ar    1  UNL1        0.0181
      7 C         143.2271  135.0031  157.1802 C.ar    1  UNL1       -0.0011
      8 C         142.1881  135.8317  156.4847 C.ar    1  UNL1        0.0023
      9 C         141.5761  135.3468  155.2039 C.ar    1  UNL1       -0.0030
     10 C         142.0032  134.0333  154.6187 C.ar    1  UNL1        0.0155
     11 C         140.5819  136.3731  154.7475 C.3     1  UNL1        0.1211
     12 N         140.5794  137.4922  155.7462 N.am    1  UNL1       -0.2582
     13 C         139.7329  138.7290  155.6825 C.2     1  UNL1        0.3037
     14 O         138.7796  138.9274  154.5415 O.2     1  UNL1       -0.2649
     15 C         141.5721  137.1576  156.8198 C.3     1  UNL1        0.1754
     16 C         143.8965  130.5779  154.1439 C.3     1  UNL1        0.1816
     17 S         143.4694  131.8914  154.7291 S.O2    1  UNL1        0.0104
     18 O         144.3486  131.6468  155.9195 O.2     1  UNL1       -0.1686
     19 O         142.5902  132.1359  153.5386 O.2     1  UNL1       -0.1686
     20 C         143.6182  139.3153  159.4482 C.ar    1  UNL1        0.0503
     21 C         143.8265  138.6693  160.7858 C.ar    1  UNL1        0.0144
     22 C         144.1469  139.5126  161.9842 C.ar    1  UNL1       -0.0002
     23 C         144.2591  141.0019  161.8450 C.ar    1  UNL1        0.0182
     24 C         144.0508  141.6478  160.5074 C.ar    1  UNL1       -0.0002
     25 C         143.7304  140.8045  159.3090 C.ar    1  UNL1        0.0144
     26 C         144.5795  141.8452  163.0434 C.3     1  UNL1        0.2827
     27 O         145.9743  142.0457  162.5293 O.3     1  UNL1       -0.3692
     28 H         146.0796  141.5748  161.6878 H       1  UNL1        0.2112
     29 C         144.9000  142.6885  164.2418 C.3     1  UNL1        0.4311
     30 F         145.2204  143.5318  165.4402 F       1  UNL1       -0.1669
     31 F         145.2162  142.0365  164.7512 F       1  UNL1       -0.1669
     32 F         144.3999  143.9045  163.5198 F       1  UNL1       -0.1669
     33 C         143.1848  141.6446  163.5575 C.3     1  UNL1        0.4311
     34 F         141.7900  141.4440  164.0716 F       1  UNL1       -0.1669
     35 F         142.7840  142.2101  163.0060 F       1  UNL1       -0.1669
     36 F         143.3444  140.6359  164.6562 F       1  UNL1       -0.1669
@<TRIPOS>BOND
     1    16    17    1
     2    17    18    2
     3    17    19    2
     4    17     5    1
     5     5     6   ar
     6     6     7   ar
     7     7     8   ar
     8     8     9   ar
     9     9    10   ar
    10     9    11    1
    11    11    12    1
    12    12    13   am
    13    13    14    2
    14    12    15    1
    15    15     1    1
    16     1     2    2
    17     1     3   am
    18     3    20    1
    19    20    21   ar
    20    21    22   ar
    21    22    23   ar
    22    23    26    1
    23    26    27    1
    24    26    29    1
    25    29    30    1
    26    29    31    1
    27    29    32    1
    28    26    33    1
    29    33    34    1
    30    33    35    1
    31    33    36    1
    32    23    24   ar
    33    24    25   ar
    34    10     5   ar
    35    25    20   ar
    36    15     8    1
    37     3     4    1
    38    27    28    1
@<TRIPOS>MOLECULE
*****
 36 38 0 0 0
SMALL
GASTEIGER

@<TRIPOS>ATOM
      1 C         141.9189  137.8876  157.4406 C.2     1  UNL1        0.2486
      2 O         140.7050  138.4580  158.1121 O.2     1  UNL1       -0.2726
      3 N         143.2763  138.4511  157.7406 N.am    1  UNL1       -0.2823
      4 H         144.0731  138.0767  157.2999 H       1  UNL1        0.1549
      5 C         143.7152  132.7377  156.0664 C.ar    1  UNL1        0.1054
      6 C         144.1734  133.5765  157.2224 C.ar    1  UNL1        0.0181
      7 C         143.5829  134.9378  157.4419 C.ar    1  UNL1       -0.0011
      8 C         142.5341  135.4603  156.5055 C.ar    1  UNL1        0.0023
      9 C         142.0758  134.6215  155.3495 C.ar    1  UNL1       -0.0030
     10 C         142.6664  133.2602  155.1299 C.ar    1  UNL1        0.0155
     11 C         141.0340  135.3966  154.5985 C.3     1  UNL1        0.1211
     12 N         140.8484  136.7145  155.2905 N.am    1  UNL1       -0.2582
     13 C         139.9019  137.8021  154.8766 C.2     1  UNL1        0.3037
     14 O         139.0318  137.6195  153.6685 O.2     1  UNL1       -0.2649
     15 C         141.7755  136.7538  156.4690 C.3     1  UNL1        0.1754
     16 C         144.8962  130.0152  155.6272 C.3     1  UNL1        0.1816
     17 S         144.3057  131.3764  155.8468 S.O2    1  UNL1        0.0104
     18 O         143.5869  131.2763  154.5341 O.2     1  UNL1       -0.1686
     19 O         145.0245  131.4765  157.1595 O.2     1  UNL1       -0.1686
     20 C         143.4197  139.5849  158.7122 C.ar    1  UNL1        0.0503
     21 C         143.8054  140.9489  158.2214 C.ar    1  UNL1        0.0144
     22 C         143.9487  142.0827  159.1930 C.ar    1  UNL1       -0.0002
     23 C         143.7065  141.8526  160.6553 C.ar    1  UNL1        0.0182
     24 C         143.3208  140.4886  161.1460 C.ar    1  UNL1       -0.0002
     25 C         143.1774  139.3548  160.1745 C.ar    1  UNL1        0.0144
     26 C         143.8499  142.9864  161.6268 C.3     1  UNL1        0.2827
     27 O         142.8421  143.7801  160.8493 O.3     1  UNL1       -0.3692
     28 H         142.5375  143.2599  160.0894 H       1  UNL1        0.2112
     29 C         143.9932  144.1202  162.5984 C.3     1  UNL1        0.4311
     30 F         144.1366  145.2540  163.5699 F       1  UNL1       -0.1669
     31 F         144.8309  144.3278  162.3991 F       1  UNL1       -0.1669
     32 F         142.5816  143.9051  163.0577 F       1  UNL1       -0.1669
     33 C         144.8576  142.1927  162.4043 C.3     1  UNL1        0.4311
     34 F         145.8653  141.3990  163.1818 F       1  UNL1       -0.1669
     35 F         145.4876  142.1788  161.7819 F       1  UNL1       -0.1669
     36 F         144.1786  141.9291  163.7156 F       1  UNL1       -0.1669
@<TRIPOS>BOND
     1    16    17    1
     2    17    18    2
     3    17    19    2
     4    17     5    1
     5     5     6   ar
     6     6     7   ar
     7     7     8   ar
     8     8     9   ar
     9     9    10   ar
    10     9    11    1
    11    11    12    1
    12    12    13   am
    13    13    14    2
    14    12    15    1
    15    15     1    1
    16     1     2    2
    17     1     3   am
    18     3    20    1
    19    20    21   ar
    20    21    22   ar
    21    22    23   ar
    22    23    26    1
    23    26    27    1
    24    26    29    1
    25    29    30    1
    26    29    31    1
    27    29    32    1
    28    26    33    1
    29    33    34    1
    30    33    35    1
    31    33    36    1
    32    23    24   ar
    33    24    25   ar
    34    10     5   ar
    35    25    20   ar
    36    15     8    1
    37     3     4    1
    38    27    28    1
@<TRIPOS>MOLECULE
*****
 36 38 0 0 0
SMALL
GASTEIGER

@<TRIPOS>ATOM
      1 C         140.4451  139.0616  161.4796 C.2     1  UNL1        0.2486
      2 O         139.9902  137.6330  161.5244 O.2     1  UNL1       -0.2726
      3 N         141.1390  139.5898  160.2591 N.am    1  UNL1       -0.2823
      4 H         141.4376  140.5275  160.2297 H       1  UNL1        0.1549
      5 C         141.7013  140.0309  166.8758 C.ar    1  UNL1        0.1054
      6 C         142.2151  138.9157  166.0141 C.ar    1  UNL1        0.0181
      7 C         141.7723  138.8071  164.5851 C.ar    1  UNL1       -0.0011
      8 C         140.8158  139.8136  164.0177 C.ar    1  UNL1        0.0023
      9 C         140.3020  140.9288  164.8793 C.ar    1  UNL1       -0.0030
     10 C         140.7448  141.0374  166.3084 C.ar    1  UNL1        0.0155
     11 C         139.3749  141.7665  164.0494 C.3     1  UNL1        0.1211
     12 N         139.3156  141.1690  162.6748 N.am    1  UNL1       -0.2582
     13 C         138.5077  141.6874  161.5221 C.2     1  UNL1        0.3037
     14 O         137.6589  142.9123  161.6920 O.2     1  UNL1       -0.2649
     15 C         140.2061  139.9620  162.6552 C.3     1  UNL1        0.1754
     16 C         142.5869  140.2482  169.7338 C.3     1  UNL1        0.1816
     17 S         142.1441  140.1396  168.3048 S.O2    1  UNL1        0.0104
     18 O         143.0707  138.9768  168.1061 O.2     1  UNL1       -0.1686
     19 O         141.2176  141.3023  168.5035 O.2     1  UNL1       -0.1686
     20 C         141.3779  138.6894  159.0835 C.ar    1  UNL1        0.0503
     21 C         140.3948  138.6576  157.9511 C.ar    1  UNL1        0.0144
     22 C         140.6337  137.7572  156.7754 C.ar    1  UNL1       -0.0002
     23 C         141.8558  136.8885  156.7322 C.ar    1  UNL1        0.0182
     24 C         142.8389  136.9203  157.8646 C.ar    1  UNL1       -0.0002
     25 C         142.6000  137.8207  159.0402 C.ar    1  UNL1        0.0144
     26 C         142.0947  135.9881  155.5565 C.3     1  UNL1        0.2827
     27 O         140.6974  135.4566  155.6796 O.3     1  UNL1       -0.3692
     28 H         140.2506  135.8910  156.4229 H       1  UNL1        0.2112
     29 C         142.3336  135.0877  154.3809 C.3     1  UNL1        0.4311
     30 F         142.5726  134.1872  153.2053 F       1  UNL1       -0.1669
     31 F         142.4327  135.7258  153.7746 F       1  UNL1       -0.1669
     32 F         142.1941  133.8884  155.2710 F       1  UNL1       -0.1669
     33 C         143.4920  136.5196  155.4334 C.3     1  UNL1        0.4311
     34 F         144.8892  137.0511  155.3103 F       1  UNL1       -0.1669
     35 F         143.9098  135.7911  155.7150 F       1  UNL1       -0.1669
     36 F         143.3049  137.9175  154.9228 F       1  UNL1       -0.1669
@<TRIPOS>BOND
     1    16    17    1
     2    17    18    2
     3    17    19    2
     4    17     5    1
     5     5     6   ar
     6     6     7   ar
     7     7     8   ar
     8     8     9   ar
     9     9    10   ar
    10     9    11    1
    11    11    12    1
    12    12    13   am
    13    13    14    2
    14    12    15    1
    15    15     1    1
    16     1     2    2
    17     1     3   am
    18     3    20    1
    19    20    21   ar
    20    21    22   ar
    21    22    23   ar
    22    23    26    1
    23    26    27    1
    24    26    29    1
    25    29    30    1
    26    29    31    1
    27    29    32    1
    28    26    33    1
    29    33    34    1
    30    33    35    1
    31    33    36    1
    32    23    24   ar
    33    24    25   ar
    34    10     5   ar
    35    25    20   ar
    36    15     8    1
    37     3     4    1
    38    27    28    1
@<TRIPOS>MOLECULE
*****
 36 38 0 0 0
SMALL
GASTEIGER

@<TRIPOS>ATOM
      1 C         142.3389  142.6043  161.9352 C.2     1  UNL1        0.2486
      2 O         143.3041  143.5636  162.5661 O.2     1  UNL1       -0.2726
      3 N         141.4785  141.7298  162.7982 N.am    1  UNL1       -0.2823
      4 H         140.8450  141.1001  162.3842 H       1  UNL1        0.1549
      5 C         140.4350  145.1488  157.2944 C.ar    1  UNL1        0.1054
      6 C         140.3070  145.6331  158.7082 C.ar    1  UNL1        0.0181
      7 C         140.8778  144.8220  159.8335 C.ar    1  UNL1       -0.0011
      8 C         141.5766  143.5265  159.5450 C.ar    1  UNL1        0.0023
      9 C         141.7046  143.0422  158.1311 C.ar    1  UNL1       -0.0030
     10 C         141.1338  143.8533  157.0059 C.ar    1  UNL1        0.0155
     11 C         142.4414  141.7357  158.1536 C.3     1  UNL1        0.1211
     12 N         142.7686  141.4127  159.5814 N.am    1  UNL1       -0.2582
     13 C         143.5017  140.1964  160.0645 C.2     1  UNL1        0.3037
     14 O         143.9791  139.1687  159.0816 O.2     1  UNL1       -0.2649
     15 C         142.2342  142.5195  160.4413 C.3     1  UNL1        0.1754
     16 C         139.2934  146.7710  155.0438 C.3     1  UNL1        0.1816
     17 S         139.8642  145.9599  156.1691 S.O2    1  UNL1        0.0104
     18 O         140.2611  144.8894  155.1962 O.2     1  UNL1       -0.1686
     19 O         139.4673  147.0304  157.1420 O.2     1  UNL1       -0.1686
     20 C         141.5832  141.8146  164.2922 C.ar    1  UNL1        0.0503
     21 C         142.6641  141.0640  165.0121 C.ar    1  UNL1        0.0144
     22 C         142.7688  141.1488  166.5060 C.ar    1  UNL1       -0.0002
     23 C         141.7927  141.9843  167.2801 C.ar    1  UNL1        0.0182
     24 C         140.7119  142.7349  166.5602 C.ar    1  UNL1       -0.0002
     25 C         140.6071  142.6501  165.0662 C.ar    1  UNL1        0.0144
     26 C         141.8975  142.0691  168.7740 C.3     1  UNL1        0.2827
     27 O         143.2617  142.6788  168.6437 O.3     1  UNL1       -0.3692
     28 H         143.4920  142.7585  167.7048 H       1  UNL1        0.2112
     29 C         142.0022  142.1540  170.2679 C.3     1  UNL1        0.4311
     30 F         142.1069  142.2388  171.7618 F       1  UNL1       -0.1669
     31 F         142.0288  141.2825  170.4239 F       1  UNL1       -0.1669
     32 F         141.9696  143.6513  170.1852 F       1  UNL1       -0.1669
     33 C         140.5332  141.4594  168.9043 C.3     1  UNL1        0.4311
     34 F         139.1689  140.8497  169.0345 F       1  UNL1       -0.1669
     35 F         140.1124  142.1921  169.1700 F       1  UNL1       -0.1669
     36 F         140.7371  140.0262  168.5114 F       1  UNL1       -0.1669
@<TRIPOS>BOND
     1    16    17    1
     2    17    18    2
     3    17    19    2
     4    17     5    1
     5     5     6   ar
     6     6     7   ar
     7     7     8   ar
     8     8     9   ar
     9     9    10   ar
    10     9    11    1
    11    11    12    1
    12    12    13   am
    13    13    14    2
    14    12    15    1
    15    15     1    1
    16     1     2    2
    17     1     3   am
    18     3    20    1
    19    20    21   ar
    20    21    22   ar
    21    22    23   ar
    22    23    26    1
    23    26    27    1
    24    26    29    1
    25    29    30    1
    26    29    31    1
    27    29    32    1
    28    26    33    1
    29    33    34    1
    30    33    35    1
    31    33    36    1
    32    23    24   ar
    33    24    25   ar
    34    10     5   ar
    35    25    20   ar
    36    15     8    1
    37     3     4    1
    38    27    28    1
@<TRIPOS>MOLECULE
*****
 36 38 0 0 0
SMALL
GASTEIGER

@<TRIPOS>ATOM
      1 C         142.2150  141.2885  162.0983 C.2     1  UNL1        0.2486
      2 O         143.4520  141.5259  162.9127 O.2     1  UNL1       -0.2726
      3 N         140.9109  141.0013  162.7815 N.am    1  UNL1       -0.2823
      4 H         140.0990  140.8455  162.2470 H       1  UNL1        0.1549
      5 C         142.7540  138.2392  157.4028 C.ar    1  UNL1        0.1054
      6 C         142.7382  137.7310  158.8140 C.ar    1  UNL1        0.0181
      7 C         142.5846  138.6919  159.9555 C.ar    1  UNL1       -0.0011
      8 C         142.4469  140.1610  159.6858 C.ar    1  UNL1        0.0023
      9 C         142.4627  140.6692  158.2747 C.ar    1  UNL1       -0.0030
     10 C         142.6163  139.7082  157.1332 C.ar    1  UNL1        0.0155
     11 C         142.3076  142.1606  158.3172 C.3     1  UNL1        0.1211
     12 N         142.1959  142.5741  159.7547 N.am    1  UNL1       -0.2582
     13 C         142.0277  143.9771  160.2581 C.2     1  UNL1        0.3037
     14 O         141.9573  145.1187  159.2877 O.2     1  UNL1       -0.2649
     15 C         142.2820  141.3383  160.6006 C.3     1  UNL1        0.1754
     16 C         143.0612  136.3173  155.1198 C.3     1  UNL1        0.1816
     17 S         142.9076  137.2782  156.2613 S.O2    1  UNL1        0.0104
     18 O         141.5236  136.7576  156.5134 O.2     1  UNL1       -0.1686
     19 O         144.2916  137.7988  156.0093 O.2     1  UNL1       -0.1686
     20 C         140.8439  140.9516  164.2792 C.ar    1  UNL1        0.0503
     21 C         141.2332  139.6985  165.0062 C.ar    1  UNL1        0.0144
     22 C         141.1661  139.6488  166.5038 C.ar    1  UNL1       -0.0002
     23 C         140.7099  140.8519  167.2746 C.ar    1  UNL1        0.0182
     24 C         140.3207  142.1050  166.5477 C.ar    1  UNL1       -0.0002
     25 C         140.3877  142.1547  165.0500 C.ar    1  UNL1        0.0144
     26 C         140.6429  140.8022  168.7723 C.3     1  UNL1        0.2827
     27 O         139.5376  139.7915  168.6892 O.3     1  UNL1       -0.3692
     28 H         139.3402  139.6040  167.7582 H       1  UNL1        0.2112
     29 C         140.5759  140.7524  170.2699 C.3     1  UNL1        0.4311
     30 F         140.5089  140.7026  171.7676 F       1  UNL1       -0.1669
     31 F         141.3722  140.3875  170.4016 F       1  UNL1       -0.1669
     32 F         139.2091  141.3689  170.2293 F       1  UNL1       -0.1669
     33 C         141.7482  141.8128  168.8553 C.3     1  UNL1        0.4311
     34 F         142.8535  142.8234  168.9384 F       1  UNL1       -0.1669
     35 F         142.4007  141.2824  168.5770 F       1  UNL1       -0.1669
     36 F         141.0672  143.0560  169.3460 F       1  UNL1       -0.1669
@<TRIPOS>BOND
     1    16    17    1
     2    17    18    2
     3    17    19    2
     4    17     5    1
     5     5     6   ar
     6     6     7   ar
     7     7     8   ar
     8     8     9   ar
     9     9    10   ar
    10     9    11    1
    11    11    12    1
    12    12    13   am
    13    13    14    2
    14    12    15    1
    15    15     1    1
    16     1     2    2
    17     1     3   am
    18     3    20    1
    19    20    21   ar
    20    21    22   ar
    21    22    23   ar
    22    23    26    1
    23    26    27    1
    24    26    29    1
    25    29    30    1
    26    29    31    1
    27    29    32    1
    28    26    33    1
    29    33    34    1
    30    33    35    1
    31    33    36    1
    32    23    24   ar
    33    24    25   ar
    34    10     5   ar
    35    25    20   ar
    36    15     8    1
    37     3     4    1
    38    27    28    1
@<TRIPOS>MOLECULE
*****
 36 38 0 0 0
SMALL
GASTEIGER

@<TRIPOS>ATOM
      1 C         141.8230  142.4399  162.5365 C.2     1  UNL1        0.2486
      2 O         141.9270  141.0164  162.0753 O.2     1  UNL1       -0.2726
      3 N         142.5297  143.5264  161.7814 N.am    1  UNL1       -0.2823
      4 H         142.4614  144.4608  162.0841 H       1  UNL1        0.1549
      5 C         141.6371  142.2421  168.1545 C.ar    1  UNL1        0.1054
      6 C         142.7400  141.7440  167.2683 C.ar    1  UNL1        0.0181
      7 C         142.6238  141.8780  165.7789 C.ar    1  UNL1       -0.0011
      8 C         141.4047  142.5102  165.1756 C.ar    1  UNL1        0.0023
      9 C         140.3017  143.0083  166.0618 C.ar    1  UNL1       -0.0030
     10 C         140.4180  142.8743  167.5512 C.ar    1  UNL1        0.0155
     11 C         139.2276  143.5830  165.1865 C.3     1  UNL1        0.1211
     12 N         139.6667  143.4401  163.7594 N.am    1  UNL1       -0.2582
     13 C         138.8957  143.8824  162.5511 C.2     1  UNL1        0.3037
     14 O         137.5551  144.5350  162.7144 O.2     1  UNL1       -0.2649
     15 C         141.0122  142.7770  163.7526 C.3     1  UNL1        0.1754
     16 C         141.8695  141.9740  171.1335 C.3     1  UNL1        0.1816
     17 S         141.7533  142.1081  169.6440 S.O2    1  UNL1        0.0104
     18 O         143.0159  141.3162  169.4742 O.2     1  UNL1       -0.1686
     19 O         140.4907  142.8999  169.8138 O.2     1  UNL1       -0.1686
     20 C         143.3404  143.1894  160.5652 C.ar    1  UNL1        0.0503
     21 C         142.7468  143.3572  159.1979 C.ar    1  UNL1        0.0144
     22 C         143.5575  143.0202  157.9818 C.ar    1  UNL1       -0.0002
     23 C         144.9619  142.5152  158.1328 C.ar    1  UNL1        0.0182
     24 C         145.5555  142.3474  159.5001 C.ar    1  UNL1       -0.0002
     25 C         144.7447  142.6844  160.7163 C.ar    1  UNL1        0.0144
     26 C         145.7726  142.1782  156.9166 C.3     1  UNL1        0.2827
     27 O         146.6958  143.3222  157.2150 O.3     1  UNL1       -0.3692
     28 H         146.4005  143.7743  158.0208 H       1  UNL1        0.2112
     29 C         146.5833  141.8411  155.7005 C.3     1  UNL1        0.4311
     30 F         147.3941  141.5040  154.4843 F       1  UNL1       -0.1669
     31 F         146.8500  141.0396  155.9672 F       1  UNL1       -0.1669
     32 F         146.2280  143.1671  155.0961 F       1  UNL1       -0.1669
     33 C         144.8494  141.0342  156.6183 C.3     1  UNL1        0.4311
     34 F         143.9263  139.8902  156.3199 F       1  UNL1       -0.1669
     35 F         145.0863  140.5232  157.3019 F       1  UNL1       -0.1669
     36 F         144.1240  141.4669  155.3788 F       1  UNL1       -0.1669
@<TRIPOS>BOND
     1    16    17    1
     2    17    18    2
     3    17    19    2
     4    17     5    1
     5     5     6   ar
     6     6     7   ar
     7     7     8   ar
     8     8     9   ar
     9     9    10   ar
    10     9    11    1
    11    11    12    1
    12    12    13   am
    13    13    14    2
    14    12    15    1
    15    15     1    1
    16     1     2    2
    17     1     3   am
    18     3    20    1
    19    20    21   ar
    20    21    22   ar
    21    22    23   ar
    22    23    26    1
    23    26    27    1
    24    26    29    1
    25    29    30    1
    26    29    31    1
    27    29    32    1
    28    26    33    1
    29    33    34    1
    30    33    35    1
    31    33    36    1
    32    23    24   ar
    33    24    25   ar
    34    10     5   ar
    35    25    20   ar
    36    15     8    1
    37     3     4    1
    38    27    28    1
@<TRIPOS>MOLECULE
*****
 36 38 0 0 0
SMALL
GASTEIGER

@<TRIPOS>ATOM
      1 C         139.9490  141.7720  162.4524 C.2     1  UNL1        0.2486
      2 O         141.4209  141.5854  162.6729 O.2     1  UNL1       -0.2726
      3 N         139.0099  141.7745  163.6221 N.am    1  UNL1       -0.2823
      4 H         138.0438  141.8970  163.4774 H       1  UNL1        0.1549
      5 C         140.2870  144.8455  157.7540 C.ar    1  UNL1        0.1054
      6 C         141.0781  145.0313  159.0147 C.ar    1  UNL1        0.0181
      7 C         140.8583  144.1131  160.1803 C.ar    1  UNL1       -0.0011
      8 C         139.8475  143.0090  160.0851 C.ar    1  UNL1        0.0023
      9 C         139.0564  142.8232  158.8243 C.ar    1  UNL1       -0.0030
     10 C         139.2762  143.7414  157.6587 C.ar    1  UNL1        0.0155
     11 C         138.1361  141.6552  159.0224 C.3     1  UNL1        0.1211
     12 N         138.3585  141.1193  160.4056 N.am    1  UNL1       -0.2582
     13 C         137.6480  139.9517  161.0236 C.2     1  UNL1        0.3037
     14 O         136.6076  139.2069  160.2407 O.2     1  UNL1       -0.2649
     15 C         139.4161  141.9560  161.0624 C.3     1  UNL1        0.1754
     16 C         140.7266  146.6820  155.4228 C.3     1  UNL1        0.1816
     17 S         140.5068  145.7637  156.5884 S.O2    1  UNL1        0.0104
     18 O         141.2771  144.6860  155.8847 O.2     1  UNL1       -0.1686
     19 O         139.7365  146.8414  157.2921 O.2     1  UNL1       -0.1686
     20 C         139.5427  141.5905  165.0121 C.ar    1  UNL1        0.0503
     21 C         139.4379  140.2538  165.6846 C.ar    1  UNL1        0.0144
     22 C         139.9707  140.0698  167.0747 C.ar    1  UNL1       -0.0002
     23 C         140.6083  141.2224  167.7922 C.ar    1  UNL1        0.0182
     24 C         140.7131  142.5591  167.1197 C.ar    1  UNL1       -0.0002
     25 C         140.1802  142.7431  165.7297 C.ar    1  UNL1        0.0144
     26 C         141.1411  141.0384  169.1823 C.3     1  UNL1        0.2827
     27 O         142.5371  141.2474  168.6749 O.3     1  UNL1       -0.3692
     28 H         142.5132  141.4047  167.7180 H       1  UNL1        0.2112
     29 C         141.6739  140.8543  170.5723 C.3     1  UNL1        0.4311
     30 F         142.2067  140.6703  171.9624 F       1  UNL1       -0.1669
     31 F         141.4198  141.6410  170.8904 F       1  UNL1       -0.1669
     32 F         142.1729  139.4895  170.2004 F       1  UNL1       -0.1669
     33 C         139.7451  140.8293  169.6897 C.3     1  UNL1        0.4311
     34 F         138.3491  140.6202  170.1971 F       1  UNL1       -0.1669
     35 F         139.7524  139.9439  169.6643 F       1  UNL1       -0.1669
     36 F         139.2288  142.2195  169.9150 F       1  UNL1       -0.1669
@<TRIPOS>BOND
     1    16    17    1
     2    17    18    2
     3    17    19    2
     4    17     5    1
     5     5     6   ar
     6     6     7   ar
     7     7     8   ar
     8     8     9   ar
     9     9    10   ar
    10     9    11    1
    11    11    12    1
    12    12    13   am
    13    13    14    2
    14    12    15    1
    15    15     1    1
    16     1     2    2
    17     1     3   am
    18     3    20    1
    19    20    21   ar
    20    21    22   ar
    21    22    23   ar
    22    23    26    1
    23    26    27    1
    24    26    29    1
    25    29    30    1
    26    29    31    1
    27    29    32    1
    28    26    33    1
    29    33    34    1
    30    33    35    1
    31    33    36    1
    32    23    24   ar
    33    24    25   ar
    34    10     5   ar
    35    25    20   ar
    36    15     8    1
    37     3     4    1
    38    27    28    1
