@<TRIPOS>MOLECULE
*****
 40 45 0 0 0
SMALL
GASTEIGER

@<TRIPOS>ATOM
      1 C         141.3660  142.9898  161.6003 C.3     1  UNL1        0.0667
      2 C         142.1535  142.4653  160.4363 C.3     1  UNL1        0.0186
      3 C         142.9992  143.3985  159.6215 C.3     1  UNL1        0.0229
      4 C         143.7868  142.8740  158.4576 C.3     1  UNL1        0.0934
      5 N         143.7286  141.4164  158.1085 N.am    1  UNL1       -0.2795
      6 C         144.5162  140.8919  156.9446 C.2     1  UNL1        0.2276
      7 O         144.4579  139.4342  156.5955 O.2     1  UNL1       -0.2748
      8 C         142.8828  140.4832  158.9233 C.3     1  UNL1        0.0934
      9 C         142.0954  141.0077  160.0872 C.3     1  UNL1        0.0229
     10 C         145.3619  141.8251  156.1297 C.3     1  UNL1        0.1062
     11 C         146.8109  142.1339  156.3644 C.3     1  UNL1        0.0411
     12 C         147.2517  143.1129  155.3169 C.3     1  UNL1        0.1158
     13 C         146.7970  143.9010  154.1244 C.3     1  UNL1        0.0321
     14 C         145.3480  143.5922  153.8897 C.3     1  UNL1        0.0325
     15 C         144.9072  142.6132  154.9372 C.3     1  UNL1        0.1238
     16 O         146.0837  142.3169  155.8193 O.3     1  UNL1       -0.3582
     17 N         142.1863  141.6533  166.1837 N.pl3   1  UNL1       -0.3039
     18 C         143.4173  142.4807  165.9593 C.3     1  UNL1        0.0923
     19 C         143.8328  143.2227  164.7237 C.3     1  UNL1        0.0387
     20 C         143.1202  143.3206  163.4073 C.3     1  UNL1        0.0739
     21 N         141.8160  142.7006  163.0016 N.3     1  UNL1       -0.2720
     22 C         140.9023  141.8296  163.8119 C.3     1  UNL1        0.0937
     23 C         141.0671  141.3636  165.2281 C.3     1  UNL1        0.1081
     24 C         142.6299  139.6719  167.8047 C.ar    1  UNL1       -0.0044
     25 C         142.5014  139.0524  169.1646 C.ar    1  UNL1        0.0161
     26 C         141.8006  139.7946  170.2638 C.ar    1  UNL1        0.0812
     27 N         141.2285  141.1564  170.0029 N.ar    1  UNL1       -0.2865
     28 C         140.4898  142.1203  170.8834 C.ar    1  UNL1        0.1022
     29 C         140.1619  143.3356  170.0676 C.ar    1  UNL1        0.1196
     30 N         140.6979  143.1228  168.6829 N.ar    1  UNL1       -0.2236
     31 C         141.3571  141.7760  168.6429 C.ar    1  UNL1        0.1609
     32 C         142.0578  141.0338  167.5438 C.ar    1  UNL1        0.0788
     33 C         142.5336  138.1697  165.6871 C.3     1  UNL1        0.0051
     34 C         143.3307  138.9297  166.7055 C.3     1  UNL1        0.0278
     35 C         140.1283  143.8035  161.3627 C.3     1  UNL1        0.1007
     36 C         140.0207  145.1879  161.9298 C.2     1  UNL1        0.2207
     37 N         140.4737  145.4607  163.3335 N.am    1  UNL1       -0.3288
     38 O         139.4600  146.2996  161.0933 O.2     1  UNL1       -0.2753
     39 H         140.8417  144.7310  163.8826 H       1  UNL1        0.1449
     40 H         140.4031  146.3694  163.7058 H       1  UNL1        0.1449
@<TRIPOS>BOND
     1    33    34    1
     2    34    24    1
     3    24    25   ar
     4    25    26   ar
     5    26    27   ar
     6    27    28   ar
     7    28    29   ar
     8    29    30   ar
     9    30    31   ar
    10    31    32   ar
    11    32    17    1
    12    17    18    1
    13    18    19    1
    14    19    20    1
    15    20    21    1
    16    21     1    1
    17     1    35    1
    18    35    36    1
    19    36    37   am
    20    36    38    2
    21     1     2    1
    22     2     3    1
    23     3     4    1
    24     4     5    1
    25     5     6   am
    26     6     7    2
    27    10     6    1
    28    10    11    1
    29    12    11    1
    30    12    13    1
    31    13    14    1
    32    15    14    1
    33    15    16    1
    34     5     8    1
    35     8     9    1
    36    21    22    1
    37    22    23    1
    38    32    24   ar
    39    23    17    1
    40    31    27   ar
    41     9     2    1
    42    15    10    1
    43    16    12    1
    44    37    39    1
    45    37    40    1
@<TRIPOS>MOLECULE
*****
 40 45 0 0 0
SMALL
GASTEIGER

@<TRIPOS>ATOM
      1 C         140.1327  139.9105  159.7846 C.3     1  UNL1        0.0667
      2 C         141.0085  139.2301  158.7746 C.3     1  UNL1        0.0186
      3 C         140.4917  138.0486  158.0086 C.3     1  UNL1        0.0229
      4 C         141.3675  137.3682  156.9986 C.3     1  UNL1        0.0934
      5 N         142.7600  137.8693  156.7547 N.am    1  UNL1       -0.2795
      6 C         143.6358  137.1889  155.7447 C.2     1  UNL1        0.2276
      7 O         145.0285  137.6901  155.5008 O.2     1  UNL1       -0.2748
      8 C         143.2769  139.0509  157.5207 C.3     1  UNL1        0.0934
      9 C         142.4011  139.7313  158.5307 C.3     1  UNL1        0.0229
     10 C         143.1191  136.0074  154.9786 C.3     1  UNL1        0.1062
     11 C         143.2883  134.5666  155.3603 C.3     1  UNL1        0.0411
     12 C         142.6162  133.7279  154.3140 C.3     1  UNL1        0.1158
     13 C         141.8395  133.7795  153.0318 C.3     1  UNL1        0.0321
     14 C         141.6703  135.2203  152.6501 C.3     1  UNL1        0.0325
     15 C         142.3424  136.0590  153.6964 C.3     1  UNL1        0.1238
     16 O         142.9270  135.1367  154.7248 O.3     1  UNL1       -0.3582
     17 N         140.4771  139.7712  164.6147 N.pl3   1  UNL1       -0.3039
     18 C         141.1288  138.4579  164.2975 C.3     1  UNL1        0.0923
     19 C         141.3708  137.8342  162.9549 C.3     1  UNL1        0.0387
     20 C         141.0210  138.3696  161.5981 C.3     1  UNL1        0.0739
     21 N         140.3428  139.6610  161.2487 N.3     1  UNL1       -0.2720
     22 C         139.8468  140.7360  162.1698 C.3     1  UNL1        0.0937
     23 C         139.9066  140.7851  163.6678 C.3     1  UNL1        0.1081
     24 C         139.2402  139.5989  166.8929 C.ar    1  UNL1       -0.0044
     25 C         139.1467  139.9438  168.3496 C.ar    1  UNL1        0.0161
     26 C         140.1967  140.8063  168.9851 C.ar    1  UNL1        0.0812
     27 N         141.3402  141.3237  168.1636 N.ar    1  UNL1       -0.2865
     28 C         142.5157  142.1881  168.5117 C.ar    1  UNL1        0.1022
     29 C         143.3357  142.3772  167.2699 C.ar    1  UNL1        0.1196
     30 N         142.6670  141.6298  166.1545 N.ar    1  UNL1       -0.2236
     31 C         141.4336  140.9787  166.7068 C.ar    1  UNL1        0.1609
     32 C         140.3837  140.1163  166.0715 C.ar    1  UNL1        0.0788
     33 C         137.3833  137.7936  167.1001 C.3     1  UNL1        0.0051
     34 C         138.1902  138.7364  166.2575 C.3     1  UNL1        0.0278
     35 C         139.0468  140.8404  159.3304 C.3     1  UNL1        0.1007
     36 C         137.6522  140.3250  159.1324 C.2     1  UNL1        0.2207
     37 N         136.9256  139.6713  160.2703 N.am    1  UNL1       -0.3288
     38 O         136.9841  140.4632  157.7965 O.2     1  UNL1       -0.2753
     39 H         137.3642  139.5806  161.1471 H       1  UNL1        0.1449
     40 H         136.0103  139.3330  160.1404 H       1  UNL1        0.1449
@<TRIPOS>BOND
     1    33    34    1
     2    34    24    1
     3    24    25   ar
     4    25    26   ar
     5    26    27   ar
     6    27    28   ar
     7    28    29   ar
     8    29    30   ar
     9    30    31   ar
    10    31    32   ar
    11    32    17    1
    12    17    18    1
    13    18    19    1
    14    19    20    1
    15    20    21    1
    16    21     1    1
    17     1    35    1
    18    35    36    1
    19    36    37   am
    20    36    38    2
    21     1     2    1
    22     2     3    1
    23     3     4    1
    24     4     5    1
    25     5     6   am
    26     6     7    2
    27    10     6    1
    28    10    11    1
    29    12    11    1
    30    12    13    1
    31    13    14    1
    32    15    14    1
    33    15    16    1
    34     5     8    1
    35     8     9    1
    36    21    22    1
    37    22    23    1
    38    32    24   ar
    39    23    17    1
    40    31    27   ar
    41     9     2    1
    42    15    10    1
    43    16    12    1
    44    37    39    1
    45    37    40    1
@<TRIPOS>MOLECULE
*****
 40 45 0 0 0
SMALL
GASTEIGER

@<TRIPOS>ATOM
      1 C         141.5950  141.6103  160.9059 C.3     1  UNL1        0.0667
      2 C         142.1002  140.7381  159.7951 C.3     1  UNL1        0.0186
      3 C         141.3499  139.4956  159.4166 C.3     1  UNL1        0.0229
      4 C         141.8551  138.6234  158.3058 C.3     1  UNL1        0.0934
      5 N         143.1107  138.9935  157.5735 N.am    1  UNL1       -0.2795
      6 C         143.6160  138.1213  156.4627 C.2     1  UNL1        0.2276
      7 O         144.8717  138.4915  155.7303 O.2     1  UNL1       -0.2748
      8 C         143.8612  140.2360  157.9519 C.3     1  UNL1        0.0934
      9 C         143.3559  141.1082  159.0627 C.3     1  UNL1        0.0229
     10 C         142.8656  136.8788  156.0842 C.3     1  UNL1        0.1062
     11 C         141.6856  136.8084  155.1609 C.3     1  UNL1        0.0411
     12 C         141.2542  135.3748  155.0685 C.3     1  UNL1        0.1158
     13 C         141.5521  133.9846  155.5468 C.3     1  UNL1        0.0321
     14 C         142.7322  134.0551  156.4701 C.3     1  UNL1        0.0325
     15 C         143.1636  135.4887  156.5625 C.3     1  UNL1        0.1238
     16 O         142.2502  136.3044  155.6962 O.3     1  UNL1       -0.3582
     17 N         141.2160  140.5731  165.6227 N.pl3   1  UNL1       -0.3039
     18 C         142.1722  139.4888  165.2226 C.3     1  UNL1        0.0923
     19 C         142.7440  139.1998  163.8663 C.3     1  UNL1        0.0387
     20 C         142.5009  139.9237  162.5752 C.3     1  UNL1        0.0739
     21 N         141.6261  141.1153  162.3215 N.3     1  UNL1       -0.2720
     22 C         140.7781  141.8775  163.2962 C.3     1  UNL1        0.0937
     23 C         140.5956  141.6362  164.7654 C.3     1  UNL1        0.1081
     24 C         139.5402  139.9711  167.5146 C.ar    1  UNL1       -0.0044
     25 C         139.1534  139.9955  168.9635 C.ar    1  UNL1        0.0161
     26 C         140.0554  140.6465  169.9698 C.ar    1  UNL1        0.0812
     27 N         141.3444  141.2731  169.5270 N.ar    1  UNL1       -0.2865
     28 C         142.4278  141.9821  170.2842 C.ar    1  UNL1        0.1022
     29 C         143.4843  142.3958  169.3030 C.ar    1  UNL1        0.1196
     30 N         143.0538  141.9425  167.9395 N.ar    1  UNL1       -0.2236
     31 C         141.7312  141.2486  168.0779 C.ar    1  UNL1        0.1609
     32 C         140.8291  140.5976  167.0717 C.ar    1  UNL1        0.0788
     33 C         137.5999  138.3354  166.9581 C.3     1  UNL1        0.0051
     34 C         138.6382  139.3201  166.5083 C.3     1  UNL1        0.0278
     35 C         141.0586  142.9777  160.6010 C.3     1  UNL1        0.1007
     36 C         141.9584  144.1742  160.6942 C.2     1  UNL1        0.2207
     37 N         141.5283  145.4838  160.1027 N.am    1  UNL1       -0.3288
     38 O         143.2883  144.0611  161.3788 O.2     1  UNL1       -0.2753
     39 H         140.6554  145.5581  159.6534 H       1  UNL1        0.1449
     40 H         142.1188  146.2692  160.1639 H       1  UNL1        0.1449
@<TRIPOS>BOND
     1    33    34    1
     2    34    24    1
     3    24    25   ar
     4    25    26   ar
     5    26    27   ar
     6    27    28   ar
     7    28    29   ar
     8    29    30   ar
     9    30    31   ar
    10    31    32   ar
    11    32    17    1
    12    17    18    1
    13    18    19    1
    14    19    20    1
    15    20    21    1
    16    21     1    1
    17     1    35    1
    18    35    36    1
    19    36    37   am
    20    36    38    2
    21     1     2    1
    22     2     3    1
    23     3     4    1
    24     4     5    1
    25     5     6   am
    26     6     7    2
    27    10     6    1
    28    10    11    1
    29    12    11    1
    30    12    13    1
    31    13    14    1
    32    15    14    1
    33    15    16    1
    34     5     8    1
    35     8     9    1
    36    21    22    1
    37    22    23    1
    38    32    24   ar
    39    23    17    1
    40    31    27   ar
    41     9     2    1
    42    15    10    1
    43    16    12    1
    44    37    39    1
    45    37    40    1
@<TRIPOS>MOLECULE
*****
 40 45 0 0 0
SMALL
GASTEIGER

@<TRIPOS>ATOM
      1 C         142.0912  143.5529  161.7168 C.3     1  UNL1        0.0667
      2 C         142.5030  142.6669  160.5787 C.3     1  UNL1        0.0186
      3 C         141.5034  141.7442  159.9468 C.3     1  UNL1        0.0229
      4 C         141.9153  140.8581  158.8087 C.3     1  UNL1        0.0934
      5 N         143.3267  140.8947  158.3026 N.am    1  UNL1       -0.2795
      6 C         143.7386  140.0087  157.1645 C.2     1  UNL1        0.2276
      7 O         145.1502  140.0453  156.6583 O.2     1  UNL1       -0.2748
      8 C         144.3265  141.8175  158.9345 C.3     1  UNL1        0.0934
      9 C         143.9146  142.7035  160.0725 C.3     1  UNL1        0.0229
     10 C         142.7390  139.0860  156.5325 C.3     1  UNL1        0.1062
     11 C         141.7830  139.4417  155.4327 C.3     1  UNL1        0.0411
     12 C         140.9730  138.2212  155.1098 C.3     1  UNL1        0.1158
     13 C         140.7538  136.7808  155.4668 C.3     1  UNL1        0.0321
     14 C         141.7097  136.4251  156.5666 C.3     1  UNL1        0.0325
     15 C         142.5198  137.6456  156.8895 C.3     1  UNL1        0.1238
     16 O         142.0645  138.7556  155.9892 O.3     1  UNL1       -0.3582
     17 N         142.4410  141.8497  166.2384 N.pl3   1  UNL1       -0.3039
     18 C         143.6863  142.6855  166.2081 C.3     1  UNL1        0.0923
     19 C         144.2243  143.5216  165.0850 C.3     1  UNL1        0.0387
     20 C         143.6500  143.7284  163.7147 C.3     1  UNL1        0.0739
     21 N         142.3960  143.1501  163.1292 N.3     1  UNL1       -0.2720
     22 C         141.4063  142.2222  163.7694 C.3     1  UNL1        0.0937
     23 C         141.4264  141.6435  165.1530 C.3     1  UNL1        0.1081
     24 C         142.6638  139.7176  167.7062 C.ar    1  UNL1       -0.0044
     25 C         142.3982  138.9920  168.9918 C.ar    1  UNL1        0.0161
     26 C         141.6441  139.6729  170.0954 C.ar    1  UNL1        0.0812
     27 N         141.1557  141.0794  169.9132 N.ar    1  UNL1       -0.2865
     28 C         140.3913  142.0013  170.8165 C.ar    1  UNL1        0.1022
     29 C         140.1846  143.2967  170.0890 C.ar    1  UNL1        0.1196
     30 N         140.8211  143.1754  168.7362 N.ar    1  UNL1       -0.2236
     31 C         141.4213  141.8050  168.6276 C.ar    1  UNL1        0.1609
     32 C         142.1754  141.1241  167.5240 C.ar    1  UNL1        0.0788
     33 C         142.6797  138.2261  165.5789 C.3     1  UNL1        0.0051
     34 C         143.4179  139.0367  166.6026 C.3     1  UNL1        0.0278
     35 C         141.3745  144.8419  161.4425 C.3     1  UNL1        0.1007
     36 C         140.2981  145.3145  162.3741 C.2     1  UNL1        0.2207
     37 N         140.6199  145.5916  163.8128 N.am    1  UNL1       -0.3288
     38 O         138.9000  145.5101  161.8672 O.2     1  UNL1       -0.2753
     39 H         141.5376  145.4632  164.1455 H       1  UNL1        0.1449
     40 H         139.9135  145.9018  164.4243 H       1  UNL1        0.1449
@<TRIPOS>BOND
     1    33    34    1
     2    34    24    1
     3    24    25   ar
     4    25    26   ar
     5    26    27   ar
     6    27    28   ar
     7    28    29   ar
     8    29    30   ar
     9    30    31   ar
    10    31    32   ar
    11    32    17    1
    12    17    18    1
    13    18    19    1
    14    19    20    1
    15    20    21    1
    16    21     1    1
    17     1    35    1
    18    35    36    1
    19    36    37   am
    20    36    38    2
    21     1     2    1
    22     2     3    1
    23     3     4    1
    24     4     5    1
    25     5     6   am
    26     6     7    2
    27    10     6    1
    28    10    11    1
    29    12    11    1
    30    12    13    1
    31    13    14    1
    32    15    14    1
    33    15    16    1
    34     5     8    1
    35     8     9    1
    36    21    22    1
    37    22    23    1
    38    32    24   ar
    39    23    17    1
    40    31    27   ar
    41     9     2    1
    42    15    10    1
    43    16    12    1
    44    37    39    1
    45    37    40    1
@<TRIPOS>MOLECULE
*****
 40 45 0 0 0
SMALL
GASTEIGER

@<TRIPOS>ATOM
      1 C         139.1452  143.2884  162.5849 C.3     1  UNL1        0.0667
      2 C         139.1203  142.4014  163.7943 C.3     1  UNL1        0.0186
      3 C         139.9622  142.7385  164.9891 C.3     1  UNL1        0.0229
      4 C         139.9373  141.8515  166.1985 C.3     1  UNL1        0.0934
      5 N         139.0705  140.6274  166.2131 N.am    1  UNL1       -0.2795
      6 C         139.0456  139.7405  167.4225 C.2     1  UNL1        0.2276
      7 O         138.1788  138.5163  167.4370 O.2     1  UNL1       -0.2748
      8 C         138.2286  140.2902  165.0182 C.3     1  UNL1        0.0934
      9 C         138.2535  141.1772  163.8089 C.3     1  UNL1        0.0229
     10 C         139.8875  140.0776  168.6173 C.3     1  UNL1        0.1062
     11 C         139.4171  140.7766  169.8583 C.3     1  UNL1        0.0411
     12 C         140.5864  140.9059  170.7889 C.3     1  UNL1        0.1158
     13 C         142.0464  140.6032  170.9526 C.3     1  UNL1        0.0321
     14 C         142.5168  139.9041  169.7116 C.3     1  UNL1        0.0325
     15 C         141.3475  139.7748  168.7809 C.3     1  UNL1        0.1238
     16 O         140.1544  140.3939  169.4467 O.3     1  UNL1       -0.3582
     17 N         141.2713  141.4883  158.6216 N.pl3   1  UNL1       -0.3039
     18 C         139.8665  141.5901  158.1055 C.3     1  UNL1        0.0923
     19 C         138.6418  142.0823  158.8183 C.3     1  UNL1        0.0387
     20 C         138.5194  142.5941  160.2230 C.3     1  UNL1        0.0739
     21 N         139.5914  142.7402  161.2618 N.3     1  UNL1       -0.2720
     22 C         141.0507  142.4105  161.1527 C.3     1  UNL1        0.0937
     23 C         141.7983  141.8534  159.9777 C.3     1  UNL1        0.1081
     24 C         143.1958  141.8898  156.9231 C.ar    1  UNL1       -0.0044
     25 C         144.2073  141.3517  155.9550 C.ar    1  UNL1        0.0161
     26 C         144.3058  139.8739  155.7172 C.ar    1  UNL1        0.0812
     27 N         143.3927  138.9343  156.4475 N.ar    1  UNL1       -0.2865
     28 C         143.2580  137.4406  156.4187 C.ar    1  UNL1        0.1022
     29 C         142.1632  137.0556  157.3691 C.ar    1  UNL1        0.1196
     30 N         141.6213  138.3113  157.9852 N.ar    1  UNL1       -0.2236
     31 C         142.3812  139.4724  157.4156 C.ar    1  UNL1        0.1609
     32 C         142.2828  140.9502  157.6535 C.ar    1  UNL1        0.0788
     33 C         142.1566  144.1983  156.3396 C.3     1  UNL1        0.0051
     34 C         143.0974  143.3676  157.1610 C.3     1  UNL1        0.0278
     35 C         138.7240  144.7236  162.6986 C.3     1  UNL1        0.1007
     36 C         139.6257  145.8119  162.1964 C.2     1  UNL1        0.2207
     37 N         140.9621  146.0352  162.8401 N.am    1  UNL1       -0.3288
     38 O         139.1912  146.6770  161.0506 O.2     1  UNL1       -0.2753
     39 H         141.2473  145.4674  163.5921 H       1  UNL1        0.1449
     40 H         141.5540  146.7495  162.5106 H       1  UNL1        0.1449
@<TRIPOS>BOND
     1    33    34    1
     2    34    24    1
     3    24    25   ar
     4    25    26   ar
     5    26    27   ar
     6    27    28   ar
     7    28    29   ar
     8    29    30   ar
     9    30    31   ar
    10    31    32   ar
    11    32    17    1
    12    17    18    1
    13    18    19    1
    14    19    20    1
    15    20    21    1
    16    21     1    1
    17     1    35    1
    18    35    36    1
    19    36    37   am
    20    36    38    2
    21     1     2    1
    22     2     3    1
    23     3     4    1
    24     4     5    1
    25     5     6   am
    26     6     7    2
    27    10     6    1
    28    10    11    1
    29    12    11    1
    30    12    13    1
    31    13    14    1
    32    15    14    1
    33    15    16    1
    34     5     8    1
    35     8     9    1
    36    21    22    1
    37    22    23    1
    38    32    24   ar
    39    23    17    1
    40    31    27   ar
    41     9     2    1
    42    15    10    1
    43    16    12    1
    44    37    39    1
    45    37    40    1
@<TRIPOS>MOLECULE
*****
 40 45 0 0 0
SMALL
GASTEIGER

@<TRIPOS>ATOM
      1 C         140.2689  143.1370  161.1275 C.3     1  UNL1        0.0667
      2 C         139.7837  142.3342  159.9571 C.3     1  UNL1        0.0186
      3 C         138.7907  142.9262  159.0014 C.3     1  UNL1        0.0229
      4 C         138.3056  142.1233  157.8309 C.3     1  UNL1        0.0934
      5 N         138.8133  140.7284  157.6161 N.am    1  UNL1       -0.2795
      6 C         138.3282  139.9255  156.4457 C.2     1  UNL1        0.2276
      7 O         138.8360  138.5305  156.2309 O.2     1  UNL1       -0.2748
      8 C         139.8064  140.1362  158.5719 C.3     1  UNL1        0.0934
      9 C         140.2915  140.9391  159.7423 C.3     1  UNL1        0.0229
     10 C         137.3352  140.5176  155.4900 C.3     1  UNL1        0.1062
     11 C         137.6604  141.3300  154.2717 C.3     1  UNL1        0.0411
     12 C         136.3689  141.7157  153.6134 C.3     1  UNL1        0.1158
     13 C         134.8764  141.5994  153.7081 C.3     1  UNL1        0.0321
     14 C         134.5512  140.7869  154.9264 C.3     1  UNL1        0.0325
     15 C         135.8427  140.4012  155.5847 C.3     1  UNL1        0.1238
     16 O         136.9661  140.9752  154.7732 O.3     1  UNL1       -0.3582
     17 N         140.7471  141.4265  165.6345 N.pl3   1  UNL1       -0.3039
     18 C         139.2723  141.2143  165.4609 C.3     1  UNL1        0.0923
     19 C         138.4164  141.5272  164.2695 C.3     1  UNL1        0.0387
     20 C         138.8238  142.1295  162.9575 C.3     1  UNL1        0.0739
     21 N         140.1876  142.5677  162.5129 N.3     1  UNL1       -0.2720
     22 C         141.4811  142.5117  163.2705 C.3     1  UNL1        0.0937
     23 C         141.7301  142.0039  164.6597 C.3     1  UNL1        0.1081
     24 C         142.0719  139.7164  167.0734 C.ar    1  UNL1       -0.0044
     25 C         142.6386  139.2954  168.3969 C.ar    1  UNL1        0.0161
     26 C         142.4471  140.1636  169.6051 C.ar    1  UNL1        0.0812
     27 N         141.6890  141.4528  169.4897 N.ar    1  UNL1       -0.2865
     28 C         141.3427  142.5072  170.4987 C.ar    1  UNL1        0.1022
     29 C         140.5620  143.5799  169.7988 C.ar    1  UNL1        0.1196
     30 N         140.4258  143.1884  168.3572 N.ar    1  UNL1       -0.2236
     31 C         141.1224  141.8737  168.1662 C.ar    1  UNL1        0.1609
     32 C         141.3138  141.0055  166.9580 C.ar    1  UNL1        0.0788
     33 C         143.5931  138.8101  165.1722 C.3     1  UNL1        0.0051
     34 C         142.2634  138.8482  165.8652 C.3     1  UNL1        0.0278
     35 C         140.8354  144.5093  160.9126 C.3     1  UNL1        0.1007
     36 C         140.3176  145.6681  161.7119 C.2     1  UNL1        0.2207
     37 N         140.9379  146.0026  163.0361 N.am    1  UNL1       -0.3288
     38 O         139.1795  146.4924  161.1872 O.2     1  UNL1       -0.2753
     39 H         141.6849  145.4616  163.3804 H       1  UNL1        0.1449
     40 H         140.5981  146.7631  163.5608 H       1  UNL1        0.1449
@<TRIPOS>BOND
     1    33    34    1
     2    34    24    1
     3    24    25   ar
     4    25    26   ar
     5    26    27   ar
     6    27    28   ar
     7    28    29   ar
     8    29    30   ar
     9    30    31   ar
    10    31    32   ar
    11    32    17    1
    12    17    18    1
    13    18    19    1
    14    19    20    1
    15    20    21    1
    16    21     1    1
    17     1    35    1
    18    35    36    1
    19    36    37   am
    20    36    38    2
    21     1     2    1
    22     2     3    1
    23     3     4    1
    24     4     5    1
    25     5     6   am
    26     6     7    2
    27    10     6    1
    28    10    11    1
    29    12    11    1
    30    12    13    1
    31    13    14    1
    32    15    14    1
    33    15    16    1
    34     5     8    1
    35     8     9    1
    36    21    22    1
    37    22    23    1
    38    32    24   ar
    39    23    17    1
    40    31    27   ar
    41     9     2    1
    42    15    10    1
    43    16    12    1
    44    37    39    1
    45    37    40    1
@<TRIPOS>MOLECULE
*****
 40 45 0 0 0
SMALL
GASTEIGER

@<TRIPOS>ATOM
      1 C         141.8219  143.5478  160.0476 C.3     1  UNL1        0.0667
      2 C         141.1026  144.1731  158.8893 C.3     1  UNL1        0.0186
      3 C         141.4604  145.5603  158.4448 C.3     1  UNL1        0.0229
      4 C         140.7411  146.1857  157.2865 C.3     1  UNL1        0.0934
      5 N         139.6641  145.4238  156.5728 N.am    1  UNL1       -0.2795
      6 C         138.9449  146.0492  155.4145 C.2     1  UNL1        0.2276
      7 O         137.8678  145.2872  154.7007 O.2     1  UNL1       -0.2748
      8 C         139.3063  144.0365  157.0173 C.3     1  UNL1        0.0934
      9 C         140.0256  143.4113  158.1755 C.3     1  UNL1        0.0229
     10 C         139.3026  147.4364  154.9700 C.3     1  UNL1        0.1062
     11 C         140.2792  147.7912  153.8881 C.3     1  UNL1        0.0411
     12 C         140.3268  149.2864  153.7787 C.3     1  UNL1        0.1158
     13 C         139.7708  150.5624  154.3380 C.3     1  UNL1        0.0321
     14 C         138.7942  150.2076  155.4198 C.3     1  UNL1        0.0325
     15 C         138.7466  148.7124  155.5292 C.3     1  UNL1        0.1238
     16 O         139.6938  148.1430  154.5150 O.3     1  UNL1       -0.3582
     17 N         139.8417  141.9583  164.1731 N.pl3   1  UNL1       -0.3039
     18 C         139.0797  143.2425  164.0295 C.3     1  UNL1        0.0923
     19 C         139.1834  144.2752  162.9466 C.3     1  UNL1        0.0387
     20 C         140.0744  144.2790  161.7399 C.3     1  UNL1        0.0739
     21 N         141.0818  143.2509  161.3181 N.3     1  UNL1       -0.2720
     22 C         141.4472  141.9651  161.9988 C.3     1  UNL1        0.0937
     23 C         140.8953  141.3899  163.2694 C.3     1  UNL1        0.1081
     24 C         138.6127  139.9359  165.2452 C.ar    1  UNL1       -0.0044
     25 C         138.2765  139.1112  166.4521 C.ar    1  UNL1        0.0161
     26 C         138.8330  139.4844  167.7942 C.ar    1  UNL1        0.0812
     27 N         139.7257  140.6822  167.9292 N.ar    1  UNL1       -0.2865
     28 C         140.4176  141.2900  169.1133 C.ar    1  UNL1        0.1022
     29 C         141.1814  142.4903  168.6380 C.ar    1  UNL1        0.1196
     30 N         140.9616  142.6243  167.1603 N.ar    1  UNL1       -0.2236
     31 C         140.0620  141.5069  166.7222 C.ar    1  UNL1        0.1609
     32 C         139.5055  141.1337  165.3802 C.ar    1  UNL1        0.0788
     33 C         138.6158  138.3859  163.1601 C.3     1  UNL1        0.0051
     34 C         138.0562  139.5627  163.9031 C.3     1  UNL1        0.0278
     35 C         143.2812  143.2193  159.9353 C.3     1  UNL1        0.1007
     36 C         143.7813  142.4133  158.7733 C.2     1  UNL1        0.2207
     37 N         144.3381  143.1056  157.5647 N.am    1  UNL1       -0.3288
     38 O         143.7246  140.9151  158.8200 O.2     1  UNL1       -0.2753
     39 H         144.3753  144.0889  157.5341 H       1  UNL1        0.1449
     40 H         144.6664  142.5766  156.8020 H       1  UNL1        0.1449
@<TRIPOS>BOND
     1    33    34    1
     2    34    24    1
     3    24    25   ar
     4    25    26   ar
     5    26    27   ar
     6    27    28   ar
     7    28    29   ar
     8    29    30   ar
     9    30    31   ar
    10    31    32   ar
    11    32    17    1
    12    17    18    1
    13    18    19    1
    14    19    20    1
    15    20    21    1
    16    21     1    1
    17     1    35    1
    18    35    36    1
    19    36    37   am
    20    36    38    2
    21     1     2    1
    22     2     3    1
    23     3     4    1
    24     4     5    1
    25     5     6   am
    26     6     7    2
    27    10     6    1
    28    10    11    1
    29    12    11    1
    30    12    13    1
    31    13    14    1
    32    15    14    1
    33    15    16    1
    34     5     8    1
    35     8     9    1
    36    21    22    1
    37    22    23    1
    38    32    24   ar
    39    23    17    1
    40    31    27   ar
    41     9     2    1
    42    15    10    1
    43    16    12    1
    44    37    39    1
    45    37    40    1
@<TRIPOS>MOLECULE
*****
 40 45 0 0 0
SMALL
GASTEIGER

@<TRIPOS>ATOM
      1 C         139.1270  143.2416  162.5695 C.3     1  UNL1        0.0667
      2 C         139.1049  142.3768  163.7949 C.3     1  UNL1        0.0186
      3 C         139.9778  142.7145  164.9671 C.3     1  UNL1        0.0229
      4 C         139.9557  141.8496  166.1924 C.3     1  UNL1        0.0934
      5 N         139.0609  140.6470  166.2456 N.am    1  UNL1       -0.2795
      6 C         139.0389  139.7822  167.4710 C.2     1  UNL1        0.2276
      7 O         138.1439  138.5795  167.5241 O.2     1  UNL1       -0.2748
      8 C         138.1880  140.3092  165.0734 C.3     1  UNL1        0.0934
      9 C         138.2100  141.1741  163.8481 C.3     1  UNL1        0.0229
     10 C         139.9117  140.1199  168.6432 C.3     1  UNL1        0.1062
     11 C         139.4742  140.8206  169.8952 C.3     1  UNL1        0.0411
     12 C         140.6673  140.9500  170.7951 C.3     1  UNL1        0.1158
     13 C         142.1309  140.6463  170.9210 C.3     1  UNL1        0.0321
     14 C         142.5684  139.9457  169.6690 C.3     1  UNL1        0.0325
     15 C         141.3752  139.8162  168.7692 C.3     1  UNL1        0.1238
     16 O         140.2003  140.4369  169.4651 O.3     1  UNL1       -0.3582
     17 N         141.1269  141.1319  158.6943 N.pl3   1  UNL1       -0.3039
     18 C         139.8908  141.6826  158.0469 C.3     1  UNL1        0.0923
     19 C         138.7816  142.4754  158.6722 C.3     1  UNL1        0.0387
     20 C         138.6344  142.9134  160.0993 C.3     1  UNL1        0.0739
     21 N         139.5600  142.6667  161.2535 N.3     1  UNL1       -0.2720
     22 C         140.8616  141.9211  161.2657 C.3     1  UNL1        0.0937
     23 C         141.5589  141.2381  160.1268 C.3     1  UNL1        0.1081
     24 C         141.6442  139.0385  157.2453 C.ar    1  UNL1       -0.0044
     25 C         142.5706  138.2816  156.3405 C.ar    1  UNL1        0.0161
     26 C         143.9063  138.8612  155.9798 C.ar    1  UNL1        0.0812
     27 N         144.3155  140.1978  156.5239 N.ar    1  UNL1       -0.2865
     28 C         145.5598  141.0161  156.3451 C.ar    1  UNL1        0.1022
     29 C         145.4024  142.2787  157.1394 C.ar    1  UNL1        0.1196
     30 N         144.0607  142.2408  157.8092 N.ar    1  UNL1       -0.2236
     31 C         143.3890  140.9547  157.4288 C.ar    1  UNL1        0.1609
     32 C         142.0533  140.3750  157.7894 C.ar    1  UNL1        0.0788
     33 C         139.7246  137.3504  156.7811 C.3     1  UNL1        0.0051
     34 C         140.3085  138.4588  157.6060 C.3     1  UNL1        0.0278
     35 C         138.7159  144.6814  162.6602 C.3     1  UNL1        0.1007
     36 C         139.6514  145.7590  162.1981 C.2     1  UNL1        0.2207
     37 N         140.9641  145.9622  162.8951 N.am    1  UNL1       -0.3288
     38 O         139.2743  146.6334  161.0391 O.2     1  UNL1       -0.2753
     39 H         141.2115  145.3883  163.6558 H       1  UNL1        0.1449
     40 H         141.5781  146.6694  162.5918 H       1  UNL1        0.1449
@<TRIPOS>BOND
     1    33    34    1
     2    34    24    1
     3    24    25   ar
     4    25    26   ar
     5    26    27   ar
     6    27    28   ar
     7    28    29   ar
     8    29    30   ar
     9    30    31   ar
    10    31    32   ar
    11    32    17    1
    12    17    18    1
    13    18    19    1
    14    19    20    1
    15    20    21    1
    16    21     1    1
    17     1    35    1
    18    35    36    1
    19    36    37   am
    20    36    38    2
    21     1     2    1
    22     2     3    1
    23     3     4    1
    24     4     5    1
    25     5     6   am
    26     6     7    2
    27    10     6    1
    28    10    11    1
    29    12    11    1
    30    12    13    1
    31    13    14    1
    32    15    14    1
    33    15    16    1
    34     5     8    1
    35     8     9    1
    36    21    22    1
    37    22    23    1
    38    32    24   ar
    39    23    17    1
    40    31    27   ar
    41     9     2    1
    42    15    10    1
    43    16    12    1
    44    37    39    1
    45    37    40    1
@<TRIPOS>MOLECULE
*****
 40 45 0 0 0
SMALL
GASTEIGER

@<TRIPOS>ATOM
      1 C         143.0282  140.1075  158.5990 C.3     1  UNL1        0.0667
      2 C         142.8715  139.8243  160.0637 C.3     1  UNL1        0.0186
      3 C         141.5253  139.9527  160.7126 C.3     1  UNL1        0.0229
      4 C         141.3687  139.6695  162.1773 C.3     1  UNL1        0.0934
      5 N         142.5583  139.2580  162.9930 N.am    1  UNL1       -0.2795
      6 C         142.4016  138.9748  164.4577 C.2     1  UNL1        0.2276
      7 O         143.5913  138.5632  165.2734 O.2     1  UNL1       -0.2748
      8 C         143.9046  139.1295  162.3441 C.3     1  UNL1        0.0934
      9 C         144.0611  139.4127  160.8794 C.3     1  UNL1        0.0229
     10 C         141.0554  139.1032  165.1067 C.3     1  UNL1        0.1062
     11 C         140.5562  140.2916  165.8737 C.3     1  UNL1        0.0411
     12 C         139.1643  139.9887  166.3437 C.3     1  UNL1        0.1158
     13 C         138.0810  138.9512  166.3396 C.3     1  UNL1        0.0321
     14 C         138.5802  137.7627  165.5726 C.3     1  UNL1        0.0325
     15 C         139.9721  138.0657  165.1026 C.3     1  UNL1        0.1238
     16 O         140.3331  139.4414  165.5791 O.3     1  UNL1       -0.3582
     17 N         143.4160  136.0700  155.9502 N.pl3   1  UNL1       -0.3039
     18 C         144.3010  136.9673  155.1367 C.3     1  UNL1        0.0923
     19 C         144.6492  138.4062  155.3783 C.3     1  UNL1        0.0387
     20 C         144.1986  139.3031  156.4930 C.3     1  UNL1        0.0739
     21 N         143.2884  138.9827  157.6413 N.3     1  UNL1       -0.2720
     22 C         142.6040  137.6862  157.9587 C.3     1  UNL1        0.0937
     23 C         142.6608  136.3900  157.2061 C.3     1  UNL1        0.1081
     24 C         142.5394  134.4104  154.1537 C.ar    1  UNL1       -0.0044
     25 C         142.3899  133.0078  153.6438 C.ar    1  UNL1        0.0161
     26 C         142.9675  131.8618  154.4205 C.ar    1  UNL1        0.0812
     27 N         143.6946  132.1186  155.7071 N.ar    1  UNL1       -0.2865
     28 C         144.3648  131.1969  156.6825 C.ar    1  UNL1        0.1022
     29 C         144.9284  132.0301  157.7952 C.ar    1  UNL1        0.1196
     30 N         144.6066  133.4666  157.5076 N.ar    1  UNL1       -0.2236
     31 C         143.8441  133.5214  156.2170 C.ar    1  UNL1        0.1609
     32 C         143.2665  134.6673  155.4403 C.ar    1  UNL1        0.0788
     33 C         140.5797  136.0506  153.6857 C.3     1  UNL1        0.0051
     34 C         141.9619  135.5564  153.3770 C.3     1  UNL1        0.0278
     35 C         142.9245  141.5155  158.0921 C.3     1  UNL1        0.1007
     36 C         143.8705  142.5653  158.5951 C.2     1  UNL1        0.2207
     37 N         145.1595  142.8218  157.8719 N.am    1  UNL1       -0.3288
     38 O         143.5276  143.3585  159.8211 O.2     1  UNL1       -0.2753
     39 H         145.3845  142.3012  157.0672 H       1  UNL1        0.1449
     40 H         145.7804  143.5108  158.2020 H       1  UNL1        0.1449
@<TRIPOS>BOND
     1    33    34    1
     2    34    24    1
     3    24    25   ar
     4    25    26   ar
     5    26    27   ar
     6    27    28   ar
     7    28    29   ar
     8    29    30   ar
     9    30    31   ar
    10    31    32   ar
    11    32    17    1
    12    17    18    1
    13    18    19    1
    14    19    20    1
    15    20    21    1
    16    21     1    1
    17     1    35    1
    18    35    36    1
    19    36    37   am
    20    36    38    2
    21     1     2    1
    22     2     3    1
    23     3     4    1
    24     4     5    1
    25     5     6   am
    26     6     7    2
    27    10     6    1
    28    10    11    1
    29    12    11    1
    30    12    13    1
    31    13    14    1
    32    15    14    1
    33    15    16    1
    34     5     8    1
    35     8     9    1
    36    21    22    1
    37    22    23    1
    38    32    24   ar
    39    23    17    1
    40    31    27   ar
    41     9     2    1
    42    15    10    1
    43    16    12    1
    44    37    39    1
    45    37    40    1
