@<TRIPOS>MOLECULE
*****
 28 32 0 0 0
SMALL
GASTEIGER

@<TRIPOS>ATOM
      1 C         139.7644  138.6331  157.6259 C.ar    1  UNL1        0.1845
      2 N         138.7577  139.2782  156.7201 N.ar    1  UNL1       -0.1274
      3 N         137.9012  140.1866  157.5515 N.ar    1  UNL1       -0.1315
      4 C         138.3785  140.1030  158.9711 C.ar    1  UNL1        0.1636
      5 N         139.5300  139.1428  159.0171 N.ar    1  UNL1       -0.2944
      6 C         140.2164  138.8568  160.3197 C.3     1  UNL1        0.1302
      7 C         139.7513  139.5309  161.5764 C.3     1  UNL1        0.1186
      8 N         138.5997  140.4910  161.5304 N.am    1  UNL1       -0.2670
      9 C         138.1346  141.1651  162.7871 C.2     1  UNL1        0.2494
     10 O         136.9831  142.1252  162.7411 O.2     1  UNL1       -0.2699
     11 C         137.9133  140.7771  160.2277 C.3     1  UNL1        0.1599
     12 C         142.2406  134.6358  155.2237 C.3     1  UNL1        0.0594
     13 C         141.9583  135.8133  156.1089 C.ar    1  UNL1        0.0887
     14 N         140.6537  136.5464  156.2118 N.ar    1  UNL1       -0.2396
     15 C         140.8201  137.6507  157.2131 C.ar    1  UNL1        0.1237
     16 C         142.2276  137.6002  157.7293 C.ar    1  UNL1        0.0588
     17 S         142.9310  136.4647  157.0468 S.2     1  UNL1       -0.0701
     18 C         138.8210  140.8790  164.0898 C.ar    1  UNL1        0.0536
     19 C         139.9866  141.7177  164.5234 C.ar    1  UNL1        0.0045
     20 C         140.6729  141.4316  165.8262 C.ar    1  UNL1        0.0006
     21 C         140.1938  140.3069  166.6952 C.ar    1  UNL1        0.0060
     22 C         139.0282  139.4682  166.2616 C.ar    1  UNL1        0.0006
     23 C         138.3418  139.7542  164.9589 C.ar    1  UNL1        0.0045
     24 C         140.8801  140.0208  167.9979 C.ar    1  UNL1        0.0295
     25 C         142.2720  139.4863  168.1623 C.ar    1  UNL1        0.0070
     26 C         142.5473  139.3542  169.6309 C.ar    1  UNL1        0.0075
     27 C         141.3255  139.8070  170.3741 C.ar    1  UNL1        0.0354
     28 S         140.2952  140.2190  169.3648 S.2     1  UNL1       -0.0864
@<TRIPOS>BOND
     1    12    13    1
     2    13    14   ar
     3    14    15   ar
     4    15     1    1
     5     1     2   ar
     6     2     3   ar
     7     3     4   ar
     8     4     5   ar
     9     5     6    1
    10     6     7    1
    11     7     8    1
    12     8     9   am
    13     9    10    2
    14     9    18    1
    15    18    19   ar
    16    19    20   ar
    17    20    21   ar
    18    21    24    1
    19    24    25   ar
    20    25    26   ar
    21    26    27   ar
    22    27    28   ar
    23    21    22   ar
    24    22    23   ar
    25     8    11    1
    26    15    16   ar
    27    16    17   ar
    28    17    13   ar
    29     5     1   ar
    30    23    18   ar
    31    11     4    1
    32    28    24   ar
@<TRIPOS>MOLECULE
*****
 28 32 0 0 0
SMALL
GASTEIGER

@<TRIPOS>ATOM
      1 C         143.2953  140.2180  157.8923 C.ar    1  UNL1        0.1845
      2 N         144.1716  141.0836  157.0363 N.ar    1  UNL1       -0.1274
      3 N         144.6205  142.2511  157.8642 N.ar    1  UNL1       -0.1315
      4 C         144.0216  142.1070  159.2319 C.ar    1  UNL1        0.1636
      5 N         143.2026  140.8505  159.2492 N.ar    1  UNL1       -0.2944
      6 C         142.4782  140.4446  160.4984 C.3     1  UNL1        0.1302
      7 C         142.5728  141.2952  161.7302 C.3     1  UNL1        0.1186
      8 N         143.3918  142.5518  161.7129 N.am    1  UNL1       -0.2670
      9 C         143.4863  143.4025  162.9448 C.2     1  UNL1        0.2494
     10 O         144.3053  144.6590  162.9274 O.2     1  UNL1       -0.2699
     11 C         144.1162  142.9577  160.4637 C.3     1  UNL1        0.1599
     12 C         142.5163  135.2103  156.4101 C.3     1  UNL1        0.0594
     13 C         142.2707  136.6417  156.7849 C.ar    1  UNL1        0.0887
     14 N         143.3172  137.6433  157.1744 N.ar    1  UNL1       -0.2396
     15 C         142.6288  138.9436  157.4662 C.ar    1  UNL1        0.1237
     16 C         141.1566  138.7458  157.2570 C.ar    1  UNL1        0.0588
     17 S         140.9353  137.3232  156.8360 S.2     1  UNL1       -0.0701
     18 C         142.7619  142.9966  164.1939 C.ar    1  UNL1        0.0536
     19 C         143.4604  142.1666  165.2299 C.ar    1  UNL1        0.0045
     20 C         142.7359  141.7607  166.4791 C.ar    1  UNL1        0.0006
     21 C         141.3130  142.1847  166.6923 C.ar    1  UNL1        0.0060
     22 C         140.6145  143.0147  165.6563 C.ar    1  UNL1        0.0006
     23 C         141.3389  143.4206  164.4071 C.ar    1  UNL1        0.0045
     24 C         140.5886  141.7788  167.9414 C.ar    1  UNL1        0.0295
     25 C         140.4251  142.6140  169.1766 C.ar    1  UNL1        0.0070
     26 C         139.6360  141.8178  170.1733 C.ar    1  UNL1        0.0075
     27 C         139.3117  140.4906  169.5541 C.ar    1  UNL1        0.0354
     28 S         139.9005  140.4665  168.1747 S.2     1  UNL1       -0.0864
@<TRIPOS>BOND
     1    12    13    1
     2    13    14   ar
     3    14    15   ar
     4    15     1    1
     5     1     2   ar
     6     2     3   ar
     7     3     4   ar
     8     4     5   ar
     9     5     6    1
    10     6     7    1
    11     7     8    1
    12     8     9   am
    13     9    10    2
    14     9    18    1
    15    18    19   ar
    16    19    20   ar
    17    20    21   ar
    18    21    24    1
    19    24    25   ar
    20    25    26   ar
    21    26    27   ar
    22    27    28   ar
    23    21    22   ar
    24    22    23   ar
    25     8    11    1
    26    15    16   ar
    27    16    17   ar
    28    17    13   ar
    29     5     1   ar
    30    23    18   ar
    31    11     4    1
    32    28    24   ar
@<TRIPOS>MOLECULE
*****
 28 32 0 0 0
SMALL
GASTEIGER

@<TRIPOS>ATOM
      1 C         139.7702  140.1679  168.2354 C.ar    1  UNL1        0.1845
      2 N         138.5490  139.4807  168.7707 N.ar    1  UNL1       -0.1274
      3 N         137.8780  138.7735  167.6307 N.ar    1  UNL1       -0.1315
      4 C         138.6844  139.0235  166.3909 C.ar    1  UNL1        0.1636
      5 N         139.8539  139.8854  166.7646 N.ar    1  UNL1       -0.2944
      6 C         140.8439  140.3015  165.7174 C.3     1  UNL1        0.1302
      7 C         140.6644  139.8558  164.2964 C.3     1  UNL1        0.1186
      8 N         139.4949  138.9940  163.9227 N.am    1  UNL1       -0.2670
      9 C         139.3155  138.5483  162.5017 C.2     1  UNL1        0.2494
     10 O         138.1460  137.6865  162.1280 O.2     1  UNL1       -0.2699
     11 C         138.5050  138.5778  164.9700 C.3     1  UNL1        0.1599
     12 C         144.2262  142.4381  169.9296 C.3     1  UNL1        0.0594
     13 C         142.7861  142.0363  169.8099 C.ar    1  UNL1        0.0887
     14 N         142.2113  141.1122  168.7776 N.ar    1  UNL1       -0.2396
     15 C         140.7378  140.9928  169.0311 C.ar    1  UNL1        0.1237
     16 C         140.4017  141.8432  170.2202 C.ar    1  UNL1        0.0588
     17 S         141.6675  142.4881  170.7015 S.2     1  UNL1       -0.0701
     18 C         140.3054  138.9644  161.4545 C.ar    1  UNL1        0.0536
     19 C         141.5103  138.1138  161.1812 C.ar    1  UNL1        0.0045
     20 C         142.5003  138.5300  160.1339 C.ar    1  UNL1        0.0006
     21 C         142.2854  139.7968  159.3599 C.ar    1  UNL1        0.0060
     22 C         141.0805  140.6474  159.6332 C.ar    1  UNL1        0.0006
     23 C         140.0906  140.2313  160.6804 C.ar    1  UNL1        0.0045
     24 C         143.2754  140.2129  158.3127 C.ar    1  UNL1        0.0295
     25 C         143.4711  139.5612  156.9759 C.ar    1  UNL1        0.0070
     26 C         144.5601  140.2993  156.2554 C.ar    1  UNL1        0.0075
     27 C         145.0375  141.4072  157.1469 C.ar    1  UNL1        0.0354
     28 S         144.2435  141.3538  158.4184 S.2     1  UNL1       -0.0864
@<TRIPOS>BOND
     1    12    13    1
     2    13    14   ar
     3    14    15   ar
     4    15     1    1
     5     1     2   ar
     6     2     3   ar
     7     3     4   ar
     8     4     5   ar
     9     5     6    1
    10     6     7    1
    11     7     8    1
    12     8     9   am
    13     9    10    2
    14     9    18    1
    15    18    19   ar
    16    19    20   ar
    17    20    21   ar
    18    21    24    1
    19    24    25   ar
    20    25    26   ar
    21    26    27   ar
    22    27    28   ar
    23    21    22   ar
    24    22    23   ar
    25     8    11    1
    26    15    16   ar
    27    16    17   ar
    28    17    13   ar
    29     5     1   ar
    30    23    18   ar
    31    11     4    1
    32    28    24   ar
@<TRIPOS>MOLECULE
*****
 28 32 0 0 0
SMALL
GASTEIGER

@<TRIPOS>ATOM
      1 C         139.1232  142.0814  158.3796 C.ar    1  UNL1        0.1845
      2 N         138.3149  141.1867  157.4872 N.ar    1  UNL1       -0.1274
      3 N         137.9798  139.9440  158.2576 N.ar    1  UNL1       -0.1315
      4 C         138.5810  140.0706  159.6260 C.ar    1  UNL1        0.1636
      5 N         139.2876  141.3916  159.7014 N.ar    1  UNL1       -0.2944
      6 C         139.9895  141.7957  160.9639 C.3     1  UNL1        0.1302
      7 C         139.9847  140.8789  162.1511 C.3     1  UNL1        0.1186
      8 N         139.2781  139.5579  162.0757 N.am    1  UNL1       -0.2670
      9 C         139.2734  138.6410  163.2629 C.2     1  UNL1        0.2494
     10 O         138.5667  137.3200  163.1875 O.2     1  UNL1       -0.2699
     11 C         138.5762  139.1538  160.8131 C.3     1  UNL1        0.1599
     12 C         139.9585  146.6498  155.8673 C.3     1  UNL1        0.0594
     13 C         140.0548  145.5291  156.8595 C.ar    1  UNL1        0.0887
     14 N         139.2504  144.2632  156.8407 N.ar    1  UNL1       -0.2396
     15 C         139.6709  143.4292  158.0143 C.ar    1  UNL1        0.1237
     16 C         140.7353  144.1795  158.7585 C.ar    1  UNL1        0.0588
     17 S         140.9726  145.4773  158.0448 S.2     1  UNL1       -0.0701
     18 C         139.9752  139.0451  164.5254 C.ar    1  UNL1        0.0536
     19 C         139.2299  139.7913  165.5920 C.ar    1  UNL1        0.0045
     20 C         139.9318  140.1955  166.8545 C.ar    1  UNL1        0.0006
     21 C         141.3791  139.8534  167.0505 C.ar    1  UNL1        0.0060
     22 C         142.1244  139.1071  165.9839 C.ar    1  UNL1        0.0006
     23 C         141.4225  138.7030  164.7214 C.ar    1  UNL1        0.0045
     24 C         142.0809  140.2575  168.3130 C.ar    1  UNL1        0.0295
     25 C         142.8309  141.5376  168.5338 C.ar    1  UNL1        0.0070
     26 C         143.3696  141.5237  169.9337 C.ar    1  UNL1        0.0075
     27 C         142.9525  140.2350  170.5781 C.ar    1  UNL1        0.0354
     28 S         142.1561  139.4524  169.5765 S.2     1  UNL1       -0.0864
@<TRIPOS>BOND
     1    12    13    1
     2    13    14   ar
     3    14    15   ar
     4    15     1    1
     5     1     2   ar
     6     2     3   ar
     7     3     4   ar
     8     4     5   ar
     9     5     6    1
    10     6     7    1
    11     7     8    1
    12     8     9   am
    13     9    10    2
    14     9    18    1
    15    18    19   ar
    16    19    20   ar
    17    20    21   ar
    18    21    24    1
    19    24    25   ar
    20    25    26   ar
    21    26    27   ar
    22    27    28   ar
    23    21    22   ar
    24    22    23   ar
    25     8    11    1
    26    15    16   ar
    27    16    17   ar
    28    17    13   ar
    29     5     1   ar
    30    23    18   ar
    31    11     4    1
    32    28    24   ar
@<TRIPOS>MOLECULE
*****
 28 32 0 0 0
SMALL
GASTEIGER

@<TRIPOS>ATOM
      1 C         143.8508  139.8783  157.1788 C.ar    1  UNL1        0.1845
      2 N         143.0516  139.0300  156.2345 N.ar    1  UNL1       -0.1274
      3 N         142.0103  138.3030  157.0327 N.ar    1  UNL1       -0.1315
      4 C         142.1659  138.7020  158.4703 C.ar    1  UNL1        0.1636
      5 N         143.3034  139.6756  158.5606 N.ar    1  UNL1       -0.2944
      6 C         143.6938  140.2517  159.8893 C.3     1  UNL1        0.1302
      7 C         142.9466  139.8543  161.1278 C.3     1  UNL1        0.1186
      8 N         141.8091  138.8807  161.0374 N.am    1  UNL1       -0.2670
      9 C         141.0619  138.4833  162.2760 C.2     1  UNL1        0.2494
     10 O         139.9244  137.5097  162.1856 O.2     1  UNL1       -0.2699
     11 C         141.4187  138.3046  159.7087 C.3     1  UNL1        0.1599
     12 C         148.1031  141.8401  154.7397 C.3     1  UNL1        0.0594
     13 C         146.9509  141.6741  155.6855 C.ar    1  UNL1        0.0887
     14 N         145.9800  140.5309  155.7004 N.ar    1  UNL1       -0.2396
     15 C         144.9963  140.7724  156.8067 C.ar    1  UNL1        0.1237
     16 C         145.3592  142.0649  157.4757 C.ar    1  UNL1        0.0588
     17 S         146.5672  142.6223  156.7828 S.2     1  UNL1       -0.0701
     18 C         141.4522  139.0595  163.6047 C.ar    1  UNL1        0.0536
     19 C         140.9037  140.3870  164.0369 C.ar    1  UNL1        0.0045
     20 C         141.2941  140.9631  165.3657 C.ar    1  UNL1        0.0006
     21 C         142.2330  140.2118  166.2623 C.ar    1  UNL1        0.0060
     22 C         142.7816  138.8842  165.8301 C.ar    1  UNL1        0.0006
     23 C         142.3912  138.3081  164.5013 C.ar    1  UNL1        0.0045
     24 C         142.6234  140.7879  167.5910 C.ar    1  UNL1        0.0295
     25 C         143.1491  142.1720  167.8317 C.ar    1  UNL1        0.0070
     26 C         143.4072  142.3207  169.3018 C.ar    1  UNL1        0.0075
     27 C         143.0410  141.0284  169.9698 C.ar    1  UNL1        0.0354
     28 S         142.5566  140.0812  168.9124 S.2     1  UNL1       -0.0864
@<TRIPOS>BOND
     1    12    13    1
     2    13    14   ar
     3    14    15   ar
     4    15     1    1
     5     1     2   ar
     6     2     3   ar
     7     3     4   ar
     8     4     5   ar
     9     5     6    1
    10     6     7    1
    11     7     8    1
    12     8     9   am
    13     9    10    2
    14     9    18    1
    15    18    19   ar
    16    19    20   ar
    17    20    21   ar
    18    21    24    1
    19    24    25   ar
    20    25    26   ar
    21    26    27   ar
    22    27    28   ar
    23    21    22   ar
    24    22    23   ar
    25     8    11    1
    26    15    16   ar
    27    16    17   ar
    28    17    13   ar
    29     5     1   ar
    30    23    18   ar
    31    11     4    1
    32    28    24   ar
@<TRIPOS>MOLECULE
*****
 28 32 0 0 0
SMALL
GASTEIGER

@<TRIPOS>ATOM
      1 C         140.9861  141.8432  158.3445 C.ar    1  UNL1        0.1845
      2 N         141.0099  140.7653  157.3016 N.ar    1  UNL1       -0.1274
      3 N         140.9811  139.4402  158.0039 N.ar    1  UNL1       -0.1315
      4 C         140.9396  139.6991  159.4809 C.ar    1  UNL1        0.1636
      5 N         140.9426  141.1843  159.6913 N.ar    1  UNL1       -0.2944
      6 C         140.9055  141.7448  161.0822 C.3     1  UNL1        0.1302
      7 C         140.8653  140.8201  162.2625 C.3     1  UNL1        0.1186
      8 N         140.8622  139.3349  162.0520 N.am    1  UNL1       -0.2670
      9 C         140.8220  138.4102  163.2325 C.2     1  UNL1        0.2494
     10 O         140.8189  136.9251  163.0220 O.2     1  UNL1       -0.2699
     11 C         140.8994  138.7745  160.6612 C.3     1  UNL1        0.1599
     12 C         139.6129  146.6696  156.7011 C.3     1  UNL1        0.0594
     13 C         140.3716  145.5392  157.3305 C.ar    1  UNL1        0.0887
     14 N         139.9497  144.0999  157.3555 N.ar    1  UNL1       -0.2396
     15 C         141.0028  143.3207  158.0860 C.ar    1  UNL1        0.1237
     16 C         142.0756  144.2783  158.5126 C.ar    1  UNL1        0.0588
     17 S         141.6855  145.6494  158.0457 S.2     1  UNL1       -0.0701
     18 C         140.7848  138.9707  164.6233 C.ar    1  UNL1        0.0536
     19 C         142.0646  139.2886  165.3382 C.ar    1  UNL1        0.0045
     20 C         142.0274  139.8491  166.7292 C.ar    1  UNL1        0.0006
     21 C         140.7105  140.0917  167.4050 C.ar    1  UNL1        0.0060
     22 C         139.4307  139.7737  166.6901 C.ar    1  UNL1        0.0006
     23 C         139.4679  139.2132  165.2993 C.ar    1  UNL1        0.0045
     24 C         140.6733  140.6521  168.7959 C.ar    1  UNL1        0.0295
     25 C         140.2492  142.0397  169.1762 C.ar    1  UNL1        0.0070
     26 C         140.3675  142.1686  170.6660 C.ar    1  UNL1        0.0075
     27 C         140.8647  140.8606  171.2064 C.ar    1  UNL1        0.0354
     28 S         141.0537  139.9234  170.0506 S.2     1  UNL1       -0.0864
@<TRIPOS>BOND
     1    12    13    1
     2    13    14   ar
     3    14    15   ar
     4    15     1    1
     5     1     2   ar
     6     2     3   ar
     7     3     4   ar
     8     4     5   ar
     9     5     6    1
    10     6     7    1
    11     7     8    1
    12     8     9   am
    13     9    10    2
    14     9    18    1
    15    18    19   ar
    16    19    20   ar
    17    20    21   ar
    18    21    24    1
    19    24    25   ar
    20    25    26   ar
    21    26    27   ar
    22    27    28   ar
    23    21    22   ar
    24    22    23   ar
    25     8    11    1
    26    15    16   ar
    27    16    17   ar
    28    17    13   ar
    29     5     1   ar
    30    23    18   ar
    31    11     4    1
    32    28    24   ar
@<TRIPOS>MOLECULE
*****
 28 32 0 0 0
SMALL
GASTEIGER

@<TRIPOS>ATOM
      1 C         139.7403  139.2013  156.5388 C.ar    1  UNL1        0.1845
      2 N         140.6902  138.6187  155.5346 N.ar    1  UNL1       -0.1274
      3 N         141.8839  138.0939  156.2759 N.ar    1  UNL1       -0.1315
      4 C         141.6718  138.3520  157.7382 C.ar    1  UNL1        0.1636
      5 N         140.3470  139.0365  157.9007 N.ar    1  UNL1       -0.2944
      6 C         139.8642  139.4212  159.2677 C.3     1  UNL1        0.1302
      7 C         140.7062  139.1214  160.4723 C.3     1  UNL1        0.1186
      8 N         142.0310  138.4370  160.3099 N.am    1  UNL1       -0.2670
      9 C         142.8731  138.1373  161.5145 C.2     1  UNL1        0.2494
     10 O         144.1979  137.4528  161.3521 O.2     1  UNL1       -0.2699
     11 C         142.5138  138.0523  158.9428 C.3     1  UNL1        0.1599
     12 C         134.9271  140.0738  154.5507 C.3     1  UNL1        0.0594
     13 C         136.2038  140.2381  155.3206 C.ar    1  UNL1        0.0887
     14 N         137.3551  139.2766  155.3347 N.ar    1  UNL1       -0.2396
     15 C         138.4162  139.8371  156.2345 C.ar    1  UNL1        0.1237
     16 C         137.9209  141.1450  156.7767 C.ar    1  UNL1        0.0588
     17 S         136.5536  141.3929  156.2119 S.2     1  UNL1       -0.0701
     18 C         142.3903  138.5220  162.8816 C.ar    1  UNL1        0.0536
     19 C         141.4591  137.6156  163.6308 C.ar    1  UNL1        0.0045
     20 C         140.9763  138.0003  164.9979 C.ar    1  UNL1        0.0006
     21 C         141.4248  139.2915  165.6158 C.ar    1  UNL1        0.0060
     22 C         142.3560  140.1979  164.8666 C.ar    1  UNL1        0.0006
     23 C         142.8388  139.8132  163.4995 C.ar    1  UNL1        0.0045
     24 C         140.9420  139.6762  166.9828 C.ar    1  UNL1        0.0295
     25 C         139.5117  139.8719  167.3900 C.ar    1  UNL1        0.0070
     26 C         139.4904  140.2494  168.8415 C.ar    1  UNL1        0.0075
     27 C         140.9077  140.2870  169.3315 C.ar    1  UNL1        0.0354
     28 S         141.8048  139.9328  168.1827 S.2     1  UNL1       -0.0864
@<TRIPOS>BOND
     1    12    13    1
     2    13    14   ar
     3    14    15   ar
     4    15     1    1
     5     1     2   ar
     6     2     3   ar
     7     3     4   ar
     8     4     5   ar
     9     5     6    1
    10     6     7    1
    11     7     8    1
    12     8     9   am
    13     9    10    2
    14     9    18    1
    15    18    19   ar
    16    19    20   ar
    17    20    21   ar
    18    21    24    1
    19    24    25   ar
    20    25    26   ar
    21    26    27   ar
    22    27    28   ar
    23    21    22   ar
    24    22    23   ar
    25     8    11    1
    26    15    16   ar
    27    16    17   ar
    28    17    13   ar
    29     5     1   ar
    30    23    18   ar
    31    11     4    1
    32    28    24   ar
@<TRIPOS>MOLECULE
*****
 28 32 0 0 0
SMALL
GASTEIGER

@<TRIPOS>ATOM
      1 C         139.6562  140.4193  167.7074 C.ar    1  UNL1        0.1845
      2 N         138.7322  139.3344  168.1755 N.ar    1  UNL1       -0.1274
      3 N         138.0296  138.7739  166.9746 N.ar    1  UNL1       -0.1315
      4 C         138.5193  139.5123  165.7643 C.ar    1  UNL1        0.1636
      5 N         139.5247  140.5293  166.2172 N.ar    1  UNL1       -0.2944
      6 C         140.1905  141.4240  165.2142 C.3     1  UNL1        0.1302
      7 C         139.8509  141.3018  163.7583 C.3     1  UNL1        0.1186
      8 N         138.8456  140.2848  163.3054 N.am    1  UNL1       -0.2670
      9 C         138.5060  140.1627  161.8494 C.2     1  UNL1        0.2494
     10 O         137.5007  139.1457  161.3965 O.2     1  UNL1       -0.2699
     11 C         138.1798  139.3901  164.3084 C.3     1  UNL1        0.1599
     12 C         143.9672  142.5901  169.8483 C.3     1  UNL1        0.0594
     13 C         142.5357  142.2465  169.5609 C.ar    1  UNL1        0.0887
     14 N         142.0523  141.2856  168.5154 N.ar    1  UNL1       -0.2396
     15 C         140.5541  141.2487  168.5768 C.ar    1  UNL1        0.1237
     16 C         140.1113  142.1868  169.6603 C.ar    1  UNL1        0.0588
     17 S         141.3360  142.8035  170.2685 S.2     1  UNL1       -0.0701
     18 C         139.1718  141.0574  160.8464 C.ar    1  UNL1        0.0536
     19 C         138.6124  142.4215  160.5703 C.ar    1  UNL1        0.0045
     20 C         139.2783  143.3163  159.5672 C.ar    1  UNL1        0.0006
     21 C         140.5035  142.8469  158.8402 C.ar    1  UNL1        0.0060
     22 C         141.0629  141.4828  159.1163 C.ar    1  UNL1        0.0006
     23 C         140.3971  140.5880  160.1193 C.ar    1  UNL1        0.0045
     24 C         141.1692  143.7416  157.8372 C.ar    1  UNL1        0.0295
     25 C         141.9136  143.2946  156.6141 C.ar    1  UNL1        0.0070
     26 C         142.4120  144.5172  155.9021 C.ar    1  UNL1        0.0075
     27 C         141.9756  145.7199  156.6852 C.ar    1  UNL1        0.0354
     28 S         141.2076  145.2405  157.8812 S.2     1  UNL1       -0.0864
@<TRIPOS>BOND
     1    12    13    1
     2    13    14   ar
     3    14    15   ar
     4    15     1    1
     5     1     2   ar
     6     2     3   ar
     7     3     4   ar
     8     4     5   ar
     9     5     6    1
    10     6     7    1
    11     7     8    1
    12     8     9   am
    13     9    10    2
    14     9    18    1
    15    18    19   ar
    16    19    20   ar
    17    20    21   ar
    18    21    24    1
    19    24    25   ar
    20    25    26   ar
    21    26    27   ar
    22    27    28   ar
    23    21    22   ar
    24    22    23   ar
    25     8    11    1
    26    15    16   ar
    27    16    17   ar
    28    17    13   ar
    29     5     1   ar
    30    23    18   ar
    31    11     4    1
    32    28    24   ar
@<TRIPOS>MOLECULE
*****
 28 32 0 0 0
SMALL
GASTEIGER

@<TRIPOS>ATOM
      1 C         141.6441  140.1227  158.5363 C.ar    1  UNL1        0.1845
      2 N         142.7580  139.4963  157.7510 N.ar    1  UNL1       -0.1274
      3 N         143.8572  139.1415  158.7079 N.ar    1  UNL1       -0.1315
      4 C         143.4227  139.5486  160.0847 C.ar    1  UNL1        0.1636
      5 N         142.0549  140.1551  159.9786 N.ar    1  UNL1       -0.2944
      6 C         141.3601  140.6584  161.2090 C.3     1  UNL1        0.1302
      7 C         142.0332  140.5553  162.5455 C.3     1  UNL1        0.1186
      8 N         143.4011  139.9488  162.6516 N.am    1  UNL1       -0.2670
      9 C         144.0742  139.8457  163.9882 C.2     1  UNL1        0.2494
     10 O         145.4420  139.2392  164.0942 O.2     1  UNL1       -0.2699
     11 C         144.0958  139.4455  161.4212 C.3     1  UNL1        0.1599
     12 C         138.0422  143.1884  156.1893 C.3     1  UNL1        0.0594
     13 C         138.6914  142.0373  156.8986 C.ar    1  UNL1        0.0887
     14 N         140.1353  141.9468  157.2949 N.ar    1  UNL1       -0.2396
     15 C         140.3470  140.6281  157.9775 C.ar    1  UNL1        0.1237
     16 C         139.0340  139.9034  158.0032 C.ar    1  UNL1        0.0588
     17 S         138.0107  140.7743  157.3365 S.2     1  UNL1       -0.0701
     18 C         143.3795  140.3490  165.2186 C.ar    1  UNL1        0.0536
     19 C         143.4312  141.8074  165.5656 C.ar    1  UNL1        0.0045
     20 C         142.7365  142.3107  166.7961 C.ar    1  UNL1        0.0006
     21 C         141.9900  141.3556  167.6795 C.ar    1  UNL1        0.0060
     22 C         141.9382  139.8972  167.3325 C.ar    1  UNL1        0.0006
     23 C         142.6329  139.3939  166.1021 C.ar    1  UNL1        0.0045
     24 C         141.2952  141.8590  168.9099 C.ar    1  UNL1        0.0295
     25 C         140.5357  143.1469  169.0290 C.ar    1  UNL1        0.0070
     26 C         140.0091  143.2467  170.4299 C.ar    1  UNL1        0.0075
     27 C         140.4432  142.0204  171.1768 C.ar    1  UNL1        0.0354
     28 S         141.2381  141.1627  170.2373 S.2     1  UNL1       -0.0864
@<TRIPOS>BOND
     1    12    13    1
     2    13    14   ar
     3    14    15   ar
     4    15     1    1
     5     1     2   ar
     6     2     3   ar
     7     3     4   ar
     8     4     5   ar
     9     5     6    1
    10     6     7    1
    11     7     8    1
    12     8     9   am
    13     9    10    2
    14     9    18    1
    15    18    19   ar
    16    19    20   ar
    17    20    21   ar
    18    21    24    1
    19    24    25   ar
    20    25    26   ar
    21    26    27   ar
    22    27    28   ar
    23    21    22   ar
    24    22    23   ar
    25     8    11    1
    26    15    16   ar
    27    16    17   ar
    28    17    13   ar
    29     5     1   ar
    30    23    18   ar
    31    11     4    1
    32    28    24   ar
