@<TRIPOS>MOLECULE
*****
 30 33 0 0 0
SMALL
GASTEIGER

@<TRIPOS>ATOM
      1 O         143.4029  141.4314  162.6782 O.2     1  UNL1       -0.2734
      2 C         143.5332  140.0938  163.3442 C.2     1  UNL1        0.2420
      3 N         143.2890  139.9630  164.8185 N.am    1  UNL1       -0.2760
      4 C         143.4193  138.6253  165.4845 C.3     1  UNL1        0.0983
      5 C         143.1751  138.4945  166.9587 C.3     1  UNL1        0.0476
      6 C         142.8005  139.7014  167.7669 C.ar    1  UNL1       -0.0229
      7 C         142.5563  139.5706  169.2410 C.ar    1  UNL1       -0.0045
      8 C         142.1817  140.7775  170.0492 C.ar    1  UNL1       -0.0003
      9 C         142.0513  142.1151  169.3831 C.ar    1  UNL1       -0.0003
     10 C         142.2955  142.2460  167.9090 C.ar    1  UNL1       -0.0030
     11 C         142.6701  141.0391  167.1008 C.ar    1  UNL1       -0.0082
     12 C         142.9144  141.1699  165.6266 C.3     1  UNL1        0.0975
     13 C         142.7840  142.5075  164.9606 C.3     1  UNL1        0.0224
     14 C         143.9795  143.4058  164.8415 C.3     1  UNL1        0.0020
     15 C         143.8492  144.7434  164.1755 C.3     1  UNL1        0.0001
     16 C         142.5233  145.1829  163.6285 C.3     1  UNL1        0.0000
     17 C         141.3279  144.2847  163.7475 C.3     1  UNL1        0.0001
     18 C         141.4583  142.9470  164.4136 C.3     1  UNL1        0.0020
     19 C         143.9078  138.8869  162.5361 C.3     1  UNL1        0.1552
     20 N         142.8520  137.9066  162.1187 N.3     1  UNL1       -0.2879
     21 H         142.9311  137.1047  162.7440 H       1  UNL1        0.1238
     22 C         141.4084  138.3143  162.1176 C.3     1  UNL1        0.0961
     23 C         140.5462  138.0238  163.3101 C.3     1  UNL1        0.1027
     24 O         141.2360  136.7004  163.1589 O.3     1  UNL1       -0.3854
     25 C         140.1559  139.4480  163.0471 C.3     1  UNL1        0.0283
     26 C         139.1428  140.1222  163.9242 C.3     1  UNL1        0.0024
     27 C         138.5201  139.3721  165.0643 C.3     1  UNL1        0.0002
     28 C         138.9105  137.9479  165.3272 C.3     1  UNL1        0.0024
     29 C         139.9235  137.2737  164.4502 C.3     1  UNL1        0.0283
     30 H         141.8444  136.7372  162.4043 H       1  UNL1        0.2103
@<TRIPOS>BOND
     1     1     2    2
     2     2    19    1
     3    19    20    1
     4    20    22    1
     5    22    23    1
     6    23    24    1
     7    23    25    1
     8    25    26    1
     9    26    27    1
    10    27    28    1
    11    28    29    1
    12     2     3   am
    13     3     4    1
    14     4     5    1
    15     5     6    1
    16     6     7   ar
    17     7     8   ar
    18     8     9   ar
    19     9    10   ar
    20    10    11   ar
    21    11    12    1
    22    12    13    1
    23    13    14    1
    24    14    15    1
    25    15    16    1
    26    16    17    1
    27    17    18    1
    28    29    23    1
    29    12     3    1
    30    18    13    1
    31    11     6   ar
    32    20    21    1
    33    24    30    1
@<TRIPOS>MOLECULE
*****
 30 33 0 0 0
SMALL
GASTEIGER

@<TRIPOS>ATOM
      1 O         141.2774  139.3348  162.9485 O.2     1  UNL1       -0.2734
      2 C         139.9325  139.0975  163.5688 C.2     1  UNL1        0.2420
      3 N         139.7287  139.3430  165.0346 N.am    1  UNL1       -0.2760
      4 C         138.3838  139.1057  165.6549 C.3     1  UNL1        0.0983
      5 C         138.1800  139.3511  167.1206 C.3     1  UNL1        0.0476
      6 C         139.3212  139.8339  167.9660 C.ar    1  UNL1       -0.0229
      7 C         139.1175  140.0793  169.4316 C.ar    1  UNL1       -0.0045
      8 C         140.2587  140.5620  170.2770 C.ar    1  UNL1       -0.0003
      9 C         141.6036  140.7993  169.6566 C.ar    1  UNL1       -0.0003
     10 C         141.8074  140.5539  168.1910 C.ar    1  UNL1       -0.0030
     11 C         140.6662  140.0711  167.3456 C.ar    1  UNL1       -0.0082
     12 C         140.8699  139.8257  165.8799 C.3     1  UNL1        0.0975
     13 C         142.2149  140.0630  165.2596 C.3     1  UNL1        0.0224
     14 C         142.5502  141.4086  164.6877 C.3     1  UNL1        0.0020
     15 C         143.8951  141.6459  164.0674 C.3     1  UNL1        0.0001
     16 C         144.9048  140.5375  164.0189 C.3     1  UNL1        0.0000
     17 C         144.5694  139.1920  164.5908 C.3     1  UNL1        0.0001
     18 C         143.2245  138.9547  165.2111 C.3     1  UNL1        0.0020
     19 C         138.7913  138.6148  162.7235 C.3     1  UNL1        0.1552
     20 N         137.7223  139.5730  162.2887 N.3     1  UNL1       -0.2879
     21 H         137.0346  139.6083  163.0412 H       1  UNL1        0.1238
     22 C         138.0767  140.9929  161.9591 C.3     1  UNL1        0.0961
     23 C         137.9692  142.0564  163.0114 C.3     1  UNL1        0.1027
     24 O         136.6734  141.3350  163.2368 O.3     1  UNL1       -0.3854
     25 C         139.3022  142.4083  162.4206 C.3     1  UNL1        0.0283
     26 C         140.0777  143.5733  162.9603 C.3     1  UNL1        0.0024
     27 C         139.5202  144.3863  164.0909 C.3     1  UNL1        0.0002
     28 C         138.1872  144.0343  164.6817 C.3     1  UNL1        0.0024
     29 C         137.4117  142.8694  164.1420 C.3     1  UNL1        0.0283
     30 H         136.5999  140.5987  162.6097 H       1  UNL1        0.2103
@<TRIPOS>BOND
     1     1     2    2
     2     2    19    1
     3    19    20    1
     4    20    22    1
     5    22    23    1
     6    23    24    1
     7    23    25    1
     8    25    26    1
     9    26    27    1
    10    27    28    1
    11    28    29    1
    12     2     3   am
    13     3     4    1
    14     4     5    1
    15     5     6    1
    16     6     7   ar
    17     7     8   ar
    18     8     9   ar
    19     9    10   ar
    20    10    11   ar
    21    11    12    1
    22    12    13    1
    23    13    14    1
    24    14    15    1
    25    15    16    1
    26    16    17    1
    27    17    18    1
    28    29    23    1
    29    12     3    1
    30    18    13    1
    31    11     6   ar
    32    20    21    1
    33    24    30    1
@<TRIPOS>MOLECULE
*****
 30 33 0 0 0
SMALL
GASTEIGER

@<TRIPOS>ATOM
      1 O         140.1734  141.2357  162.8035 O.2     1  UNL1       -0.2734
      2 C         139.4838  140.1517  163.5778 C.2     1  UNL1        0.2420
      3 N         139.4309  140.2175  165.0755 N.am    1  UNL1       -0.2760
      4 C         138.7414  139.1336  165.8499 C.3     1  UNL1        0.0983
      5 C         138.6884  139.1993  167.3475 C.3     1  UNL1        0.0476
      6 C         139.3250  140.3490  168.0708 C.ar    1  UNL1       -0.0229
      7 C         139.2720  140.4147  169.5684 C.ar    1  UNL1       -0.0045
      8 C         139.9086  141.5644  170.2916 C.ar    1  UNL1       -0.0003
      9 C         140.5981  142.6483  169.5172 C.ar    1  UNL1       -0.0003
     10 C         140.6511  142.5826  168.0196 C.ar    1  UNL1       -0.0030
     11 C         140.0145  141.4329  167.2964 C.ar    1  UNL1       -0.0082
     12 C         140.0674  141.3672  165.7987 C.3     1  UNL1        0.0975
     13 C         140.7570  142.4511  165.0243 C.3     1  UNL1        0.0224
     14 C         139.9978  143.6775  164.6122 C.3     1  UNL1        0.0020
     15 C         140.6873  144.7614  163.8378 C.3     1  UNL1        0.0001
     16 C         142.1360  144.6189  163.4755 C.3     1  UNL1        0.0000
     17 C         142.8951  143.3926  163.8877 C.3     1  UNL1        0.0001
     18 C         142.2055  142.3087  164.6620 C.3     1  UNL1        0.0020
     19 C         138.8473  139.0021  162.8546 C.3     1  UNL1        0.1552
     20 N         139.6936  137.8681  162.3570 N.3     1  UNL1       -0.2879
     21 H         140.1017  138.1712  161.4727 H       1  UNL1        0.1238
     22 C         140.8212  137.3482  163.1986 C.3     1  UNL1        0.0961
     23 C         142.1381  138.0662  163.2145 C.3     1  UNL1        0.1027
     24 O         141.9007  137.9901  161.7353 O.3     1  UNL1       -0.3854
     25 C         141.9181  137.8929  164.6881 C.3     1  UNL1        0.0283
     26 C         142.9326  138.4112  165.6639 C.3     1  UNL1        0.0024
     27 C         144.1671  139.1028  165.1660 C.3     1  UNL1        0.0002
     28 C         144.3871  139.2761  163.6924 C.3     1  UNL1        0.0024
     29 C         143.3726  138.7578  162.7166 C.3     1  UNL1        0.0283
     30 H         141.0598  137.5374  161.5657 H       1  UNL1        0.2103
@<TRIPOS>BOND
     1     1     2    2
     2     2    19    1
     3    19    20    1
     4    20    22    1
     5    22    23    1
     6    23    24    1
     7    23    25    1
     8    25    26    1
     9    26    27    1
    10    27    28    1
    11    28    29    1
    12     2     3   am
    13     3     4    1
    14     4     5    1
    15     5     6    1
    16     6     7   ar
    17     7     8   ar
    18     8     9   ar
    19     9    10   ar
    20    10    11   ar
    21    11    12    1
    22    12    13    1
    23    13    14    1
    24    14    15    1
    25    15    16    1
    26    16    17    1
    27    17    18    1
    28    29    23    1
    29    12     3    1
    30    18    13    1
    31    11     6   ar
    32    20    21    1
    33    24    30    1
@<TRIPOS>MOLECULE
*****
 30 33 0 0 0
SMALL
GASTEIGER

@<TRIPOS>ATOM
      1 O         141.1338  141.2221  162.8794 O.2     1  UNL1       -0.2734
      2 C         142.1277  140.2319  163.4101 C.2     1  UNL1        0.2420
      3 N         142.2104  139.9692  164.8847 N.am    1  UNL1       -0.2760
      4 C         143.2043  138.9790  165.4154 C.3     1  UNL1        0.0983
      5 C         143.2871  138.7162  166.8899 C.3     1  UNL1        0.0476
      6 C         142.3759  139.4437  167.8337 C.ar    1  UNL1       -0.0229
      7 C         142.4586  139.1809  169.3081 C.ar    1  UNL1       -0.0045
      8 C         141.5475  139.9083  170.2518 C.ar    1  UNL1       -0.0003
      9 C         140.5536  140.8985  169.7211 C.ar    1  UNL1       -0.0003
     10 C         140.4708  141.1612  168.2466 C.ar    1  UNL1       -0.0030
     11 C         141.3820  140.4338  167.3029 C.ar    1  UNL1       -0.0082
     12 C         141.2992  140.6966  165.8284 C.3     1  UNL1        0.0975
     13 C         140.3053  141.6868  165.2976 C.3     1  UNL1        0.0224
     14 C         138.9289  141.2335  164.9100 C.3     1  UNL1        0.0020
     15 C         137.9350  142.2237  164.3792 C.3     1  UNL1        0.0001
     16 C         138.3175  143.6671  164.2362 C.3     1  UNL1        0.0000
     17 C         139.6938  144.1203  164.6238 C.3     1  UNL1        0.0001
     18 C         140.6877  143.1301  165.1546 C.3     1  UNL1        0.0020
     19 C         143.0388  139.5045  162.4664 C.3     1  UNL1        0.1552
     20 N         144.4782  139.9104  162.3513 N.3     1  UNL1       -0.2879
     21 H         144.8576  139.4231  161.5396 H       1  UNL1        0.1238
     22 C         144.8392  141.3580  162.1951 C.3     1  UNL1        0.0961
     23 C         144.7639  142.2813  163.3748 C.3     1  UNL1        0.1027
     24 O         145.5131  141.1356  163.9881 O.3     1  UNL1       -0.3854
     25 C         144.0409  143.1063  162.3518 C.3     1  UNL1        0.0283
     26 C         143.5028  144.4567  162.7215 C.3     1  UNL1        0.0024
     27 C         143.6877  144.9822  164.1143 C.3     1  UNL1        0.0002
     28 C         144.4107  144.1572  165.1373 C.3     1  UNL1        0.0024
     29 C         144.9489  142.8067  164.7676 C.3     1  UNL1        0.0283
     30 H         145.6407  140.4402  163.3240 H       1  UNL1        0.2103
@<TRIPOS>BOND
     1     1     2    2
     2     2    19    1
     3    19    20    1
     4    20    22    1
     5    22    23    1
     6    23    24    1
     7    23    25    1
     8    25    26    1
     9    26    27    1
    10    27    28    1
    11    28    29    1
    12     2     3   am
    13     3     4    1
    14     4     5    1
    15     5     6    1
    16     6     7   ar
    17     7     8   ar
    18     8     9   ar
    19     9    10   ar
    20    10    11   ar
    21    11    12    1
    22    12    13    1
    23    13    14    1
    24    14    15    1
    25    15    16    1
    26    16    17    1
    27    17    18    1
    28    29    23    1
    29    12     3    1
    30    18    13    1
    31    11     6   ar
    32    20    21    1
    33    24    30    1
@<TRIPOS>MOLECULE
*****
 30 33 0 0 0
SMALL
GASTEIGER

@<TRIPOS>ATOM
      1 O         141.5829  141.3269  163.0679 O.2     1  UNL1       -0.2734
      2 C         140.5969  140.3659  163.6631 C.2     1  UNL1        0.2420
      3 N         140.2842  140.4240  165.1290 N.am    1  UNL1       -0.2760
      4 C         139.2982  139.4629  165.7242 C.3     1  UNL1        0.0983
      5 C         138.9854  139.5210  167.1900 C.3     1  UNL1        0.0476
      6 C         139.6587  140.5401  168.0608 C.ar    1  UNL1       -0.0229
      7 C         139.3459  140.5982  169.5267 C.ar    1  UNL1       -0.0045
      8 C         140.0192  141.6173  170.3973 C.ar    1  UNL1       -0.0003
      9 C         141.0052  142.5783  169.8022 C.ar    1  UNL1       -0.0003
     10 C         141.3179  142.5203  168.3363 C.ar    1  UNL1       -0.0030
     11 C         140.6447  141.5012  167.4656 C.ar    1  UNL1       -0.0082
     12 C         140.9574  141.4431  165.9997 C.3     1  UNL1        0.0975
     13 C         141.9434  142.4041  165.4045 C.3     1  UNL1        0.0224
     14 C         143.4105  142.0936  165.4433 C.3     1  UNL1        0.0020
     15 C         144.3965  143.0546  164.8482 C.3     1  UNL1        0.0001
     16 C         143.9154  144.3262  164.2142 C.3     1  UNL1        0.0000
     17 C         142.4484  144.6366  164.1754 C.3     1  UNL1        0.0001
     18 C         141.4624  143.6756  164.7706 C.3     1  UNL1        0.0020
     19 C         139.9237  139.3468  162.7924 C.3     1  UNL1        0.1552
     20 N         139.1821  139.7827  161.5636 N.3     1  UNL1       -0.2879
     21 H         138.9939  138.9410  161.0191 H       1  UNL1        0.1238
     22 C         137.8792  140.5145  161.6939 C.3     1  UNL1        0.0961
     23 C         137.8011  141.7662  162.5167 C.3     1  UNL1        0.1027
     24 O         136.9643  140.8487  163.3583 O.3     1  UNL1       -0.3854
     25 C         138.6649  142.2490  161.3895 C.3     1  UNL1        0.0283
     26 C         139.1600  143.6648  161.3773 C.3     1  UNL1        0.0024
     27 C         138.7913  144.5980  162.4924 C.3     1  UNL1        0.0002
     28 C         137.9275  144.1152  163.6196 C.3     1  UNL1        0.0024
     29 C         137.4324  142.6994  163.6318 C.3     1  UNL1        0.0283
     30 H         136.9223  139.9747  162.9398 H       1  UNL1        0.2103
@<TRIPOS>BOND
     1     1     2    2
     2     2    19    1
     3    19    20    1
     4    20    22    1
     5    22    23    1
     6    23    24    1
     7    23    25    1
     8    25    26    1
     9    26    27    1
    10    27    28    1
    11    28    29    1
    12     2     3   am
    13     3     4    1
    14     4     5    1
    15     5     6    1
    16     6     7   ar
    17     7     8   ar
    18     8     9   ar
    19     9    10   ar
    20    10    11   ar
    21    11    12    1
    22    12    13    1
    23    13    14    1
    24    14    15    1
    25    15    16    1
    26    16    17    1
    27    17    18    1
    28    29    23    1
    29    12     3    1
    30    18    13    1
    31    11     6   ar
    32    20    21    1
    33    24    30    1
@<TRIPOS>MOLECULE
*****
 30 33 0 0 0
SMALL
GASTEIGER

@<TRIPOS>ATOM
      1 O         141.1584  141.3178  163.2542 O.2     1  UNL1       -0.2734
      2 C         142.1731  140.4269  163.9075 C.2     1  UNL1        0.2420
      3 N         142.0958  140.1567  165.3810 N.am    1  UNL1       -0.2760
      4 C         143.1105  139.2658  166.0343 C.3     1  UNL1        0.0983
      5 C         143.0332  138.9956  167.5077 C.3     1  UNL1        0.0476
      6 C         141.9413  139.6162  168.3279 C.ar    1  UNL1       -0.0229
      7 C         141.8640  139.3459  169.8013 C.ar    1  UNL1       -0.0045
      8 C         140.7721  139.9665  170.6213 C.ar    1  UNL1       -0.0003
      9 C         139.7575  140.8573  169.9680 C.ar    1  UNL1       -0.0003
     10 C         139.8347  141.1276  168.4946 C.ar    1  UNL1       -0.0030
     11 C         140.9266  140.5070  167.6746 C.ar    1  UNL1       -0.0082
     12 C         141.0039  140.7773  166.2011 C.3     1  UNL1        0.0975
     13 C         139.9893  141.6681  165.5478 C.3     1  UNL1        0.0224
     14 C         140.1992  143.1532  165.5248 C.3     1  UNL1        0.0020
     15 C         139.1846  144.0441  164.8714 C.3     1  UNL1        0.0001
     16 C         137.9599  143.4499  164.2411 C.3     1  UNL1        0.0000
     17 C         137.7500  141.9648  164.2641 C.3     1  UNL1        0.0001
     18 C         138.7647  141.0740  164.9174 C.3     1  UNL1        0.0020
     19 C         143.2650  139.8063  163.0875 C.3     1  UNL1        0.1552
     20 N         143.1296  138.3924  162.6054 N.3     1  UNL1       -0.2879
     21 H         142.9284  137.8198  163.4252 H       1  UNL1        0.1238
     22 C         142.0977  138.0477  161.5727 C.3     1  UNL1        0.0961
     23 C         140.6461  138.0050  161.9480 C.3     1  UNL1        0.1027
     24 O         141.1981  137.0140  162.9295 O.3     1  UNL1       -0.3854
     25 C         140.5982  139.0107  160.8363 C.3     1  UNL1        0.0283
     26 C         139.2904  139.6297  160.4406 C.3     1  UNL1        0.0024
     27 C         138.0304  139.2429  161.1568 C.3     1  UNL1        0.0002
     28 C         138.0783  138.2371  162.2686 C.3     1  UNL1        0.0024
     29 C         139.3861  137.6181  162.6642 C.3     1  UNL1        0.0283
     30 H         142.1564  136.9333  162.8032 H       1  UNL1        0.2103
@<TRIPOS>BOND
     1     1     2    2
     2     2    19    1
     3    19    20    1
     4    20    22    1
     5    22    23    1
     6    23    24    1
     7    23    25    1
     8    25    26    1
     9    26    27    1
    10    27    28    1
    11    28    29    1
    12     2     3   am
    13     3     4    1
    14     4     5    1
    15     5     6    1
    16     6     7   ar
    17     7     8   ar
    18     8     9   ar
    19     9    10   ar
    20    10    11   ar
    21    11    12    1
    22    12    13    1
    23    13    14    1
    24    14    15    1
    25    15    16    1
    26    16    17    1
    27    17    18    1
    28    29    23    1
    29    12     3    1
    30    18    13    1
    31    11     6   ar
    32    20    21    1
    33    24    30    1
@<TRIPOS>MOLECULE
*****
 30 33 0 0 0
SMALL
GASTEIGER

@<TRIPOS>ATOM
      1 O         142.8905  143.6751  161.6132 O.2     1  UNL1       -0.2734
      2 C         141.5285  143.3716  161.0629 C.2     1  UNL1        0.2420
      3 N         140.7758  142.1672  161.5458 N.am    1  UNL1       -0.2760
      4 C         139.4139  141.8637  160.9955 C.3     1  UNL1        0.0983
      5 C         138.6612  140.6594  161.4783 C.3     1  UNL1        0.0476
      6 C         139.2705  139.7586  162.5114 C.ar    1  UNL1       -0.0229
      7 C         138.5178  138.5543  162.9942 C.ar    1  UNL1       -0.0045
      8 C         139.1271  137.6536  164.0274 C.ar    1  UNL1       -0.0003
      9 C         140.4891  137.9571  164.5777 C.ar    1  UNL1       -0.0003
     10 C         141.2418  139.1614  164.0949 C.ar    1  UNL1       -0.0030
     11 C         140.6325  140.0621  163.0618 C.ar    1  UNL1       -0.0082
     12 C         141.3852  141.2665  162.5789 C.3     1  UNL1        0.0975
     13 C         142.7471  141.5701  163.1292 C.3     1  UNL1        0.0224
     14 C         143.9688  141.0246  162.4509 C.3     1  UNL1        0.0020
     15 C         145.3308  141.3281  163.0012 C.3     1  UNL1        0.0001
     16 C         145.4711  142.1772  164.2299 C.3     1  UNL1        0.0000
     17 C         144.2495  142.7226  164.9081 C.3     1  UNL1        0.0001
     18 C         142.8875  142.4190  164.3578 C.3     1  UNL1        0.0020
     19 C         140.9192  144.2723  160.0298 C.3     1  UNL1        0.1552
     20 N         139.8432  145.2415  160.4206 N.3     1  UNL1       -0.2879
     21 H         138.9771  144.7074  160.4908 H       1  UNL1        0.1238
     22 C         139.9695  146.0306  161.6901 C.3     1  UNL1        0.0961
     23 C         139.9186  145.3312  163.0160 C.3     1  UNL1        0.1027
     24 O         141.2864  145.9419  163.0960 O.3     1  UNL1       -0.3854
     25 C         138.5686  144.9635  162.4756 C.3     1  UNL1        0.0283
     26 C         137.6426  144.1084  163.2889 C.3     1  UNL1        0.0024
     27 C         138.0668  143.6211  164.6427 C.3     1  UNL1        0.0002
     28 C         139.4168  143.9889  165.1831 C.3     1  UNL1        0.0024
     29 C         140.3427  144.8439  164.3698 C.3     1  UNL1        0.0283
     30 H         141.4657  146.4409  162.2837 H       1  UNL1        0.2103
@<TRIPOS>BOND
     1     1     2    2
     2     2    19    1
     3    19    20    1
     4    20    22    1
     5    22    23    1
     6    23    24    1
     7    23    25    1
     8    25    26    1
     9    26    27    1
    10    27    28    1
    11    28    29    1
    12     2     3   am
    13     3     4    1
    14     4     5    1
    15     5     6    1
    16     6     7   ar
    17     7     8   ar
    18     8     9   ar
    19     9    10   ar
    20    10    11   ar
    21    11    12    1
    22    12    13    1
    23    13    14    1
    24    14    15    1
    25    15    16    1
    26    16    17    1
    27    17    18    1
    28    29    23    1
    29    12     3    1
    30    18    13    1
    31    11     6   ar
    32    20    21    1
    33    24    30    1
@<TRIPOS>MOLECULE
*****
 30 33 0 0 0
SMALL
GASTEIGER

@<TRIPOS>ATOM
      1 O         143.7011  142.6543  166.1258 O.2     1  UNL1       -0.2734
      2 C         143.6980  142.3355  164.6601 C.2     1  UNL1        0.2420
      3 N         142.7421  141.3152  164.1165 N.am    1  UNL1       -0.2760
      4 C         142.7390  140.9964  162.6508 C.3     1  UNL1        0.0983
      5 C         141.7832  139.9761  162.1072 C.3     1  UNL1        0.0476
      6 C         140.8305  139.2746  163.0294 C.ar    1  UNL1       -0.0229
      7 C         139.8748  138.2544  162.4858 C.ar    1  UNL1       -0.0045
      8 C         138.9221  137.5529  163.4079 C.ar    1  UNL1       -0.0003
      9 C         138.9253  137.8717  164.8736 C.ar    1  UNL1       -0.0003
     10 C         139.8810  138.8919  165.4172 C.ar    1  UNL1       -0.0030
     11 C         140.8337  139.5934  164.4951 C.ar    1  UNL1       -0.0082
     12 C         141.7895  140.6137  165.0387 C.3     1  UNL1        0.0975
     13 C         141.7926  140.9325  166.5044 C.3     1  UNL1        0.0224
     14 C         140.9405  142.0491  167.0309 C.3     1  UNL1        0.0020
     15 C         140.9436  142.3679  168.4966 C.3     1  UNL1        0.0001
     16 C         141.7989  141.5701  169.4359 C.3     1  UNL1        0.0000
     17 C         142.6510  140.4535  168.9093 C.3     1  UNL1        0.0001
     18 C         142.6479  140.1348  167.4436 C.3     1  UNL1        0.0020
     19 C         144.6506  143.0370  163.7380 C.3     1  UNL1        0.1552
     20 N         144.2011  144.2473  162.9744 N.3     1  UNL1       -0.2879
     21 H         144.0086  143.9393  162.0212 H       1  UNL1        0.1238
     22 C         142.9985  145.0186  163.4315 C.3     1  UNL1        0.0961
     23 C         141.6774  144.8216  162.7492 C.3     1  UNL1        0.1027
     24 O         142.5759  144.9235  161.5524 O.3     1  UNL1       -0.3854
     25 C         141.2377  144.7881  164.1829 C.3     1  UNL1        0.0283
     26 C         139.7888  144.5931  164.5186 C.3     1  UNL1        0.0024
     27 C         138.7796  144.4315  163.4206 C.3     1  UNL1        0.0002
     28 C         139.2193  144.4650  161.9870 C.3     1  UNL1        0.0024
     29 C         140.6682  144.6601  161.6512 C.3     1  UNL1        0.0283
     30 H         143.4910  145.0565  161.8455 H       1  UNL1        0.2103
@<TRIPOS>BOND
     1     1     2    2
     2     2    19    1
     3    19    20    1
     4    20    22    1
     5    22    23    1
     6    23    24    1
     7    23    25    1
     8    25    26    1
     9    26    27    1
    10    27    28    1
    11    28    29    1
    12     2     3   am
    13     3     4    1
    14     4     5    1
    15     5     6    1
    16     6     7   ar
    17     7     8   ar
    18     8     9   ar
    19     9    10   ar
    20    10    11   ar
    21    11    12    1
    22    12    13    1
    23    13    14    1
    24    14    15    1
    25    15    16    1
    26    16    17    1
    27    17    18    1
    28    29    23    1
    29    12     3    1
    30    18    13    1
    31    11     6   ar
    32    20    21    1
    33    24    30    1
@<TRIPOS>MOLECULE
*****
 30 33 0 0 0
SMALL
GASTEIGER

@<TRIPOS>ATOM
      1 O         140.9587  143.5514  162.4891 O.2     1  UNL1       -0.2734
      2 C         142.2389  143.6975  163.2571 C.2     1  UNL1        0.2420
      3 N         142.3648  143.0974  164.6262 N.am    1  UNL1       -0.2760
      4 C         143.6450  143.2435  165.3942 C.3     1  UNL1        0.0983
      5 C         143.7710  142.6435  166.7631 C.3     1  UNL1        0.0476
      6 C         142.6168  141.8973  167.3641 C.ar    1  UNL1       -0.0229
      7 C         142.7428  141.2973  168.7331 C.ar    1  UNL1       -0.0045
      8 C         141.5886  140.5512  169.3340 C.ar    1  UNL1       -0.0003
      9 C         140.3084  140.4051  168.5660 C.ar    1  UNL1       -0.0003
     10 C         140.1824  141.0052  167.1970 C.ar    1  UNL1       -0.0030
     11 C         141.3366  141.7512  166.5961 C.ar    1  UNL1       -0.0082
     12 C         141.2107  142.3513  165.2271 C.3     1  UNL1        0.0975
     13 C         139.9305  142.2052  164.4591 C.3     1  UNL1        0.0224
     14 C         138.8616  143.2511  164.5770 C.3     1  UNL1        0.0020
     15 C         137.5815  143.1050  163.8089 C.3     1  UNL1        0.0001
     16 C         137.3702  141.9131  162.9231 C.3     1  UNL1        0.0000
     17 C         138.4390  140.8673  162.8052 C.3     1  UNL1        0.0001
     18 C         139.7191  141.0134  163.5732 C.3     1  UNL1        0.0020
     19 C         143.3931  144.4435  162.6562 C.3     1  UNL1        0.1552
     20 N         144.4752  143.6962  161.9348 N.3     1  UNL1       -0.2879
     21 H         145.3311  143.8234  162.4747 H       1  UNL1        0.1238
     22 C         144.3334  142.2233  161.6884 C.3     1  UNL1        0.0961
     23 C         144.7006  141.2443  162.7638 C.3     1  UNL1        0.1027
     24 O         145.9356  142.0957  162.7539 O.3     1  UNL1       -0.3854
     25 C         143.3382  140.7330  162.4002 C.3     1  UNL1        0.0283
     26 C         142.7718  139.5382  163.1086 C.3     1  UNL1        0.0024
     27 C         143.5680  138.8548  164.1806 C.3     1  UNL1        0.0002
     28 C         144.9304  139.3661  164.5442 C.3     1  UNL1        0.0024
     29 C         145.4967  140.5609  163.8359 C.3     1  UNL1        0.0283
     30 H         145.8417  142.7938  162.0871 H       1  UNL1        0.2103
@<TRIPOS>BOND
     1     1     2    2
     2     2    19    1
     3    19    20    1
     4    20    22    1
     5    22    23    1
     6    23    24    1
     7    23    25    1
     8    25    26    1
     9    26    27    1
    10    27    28    1
    11    28    29    1
    12     2     3   am
    13     3     4    1
    14     4     5    1
    15     5     6    1
    16     6     7   ar
    17     7     8   ar
    18     8     9   ar
    19     9    10   ar
    20    10    11   ar
    21    11    12    1
    22    12    13    1
    23    13    14    1
    24    14    15    1
    25    15    16    1
    26    16    17    1
    27    17    18    1
    28    29    23    1
    29    12     3    1
    30    18    13    1
    31    11     6   ar
    32    20    21    1
    33    24    30    1
