@<TRIPOS>MOLECULE
*****
 33 37 0 0 0
SMALL
GASTEIGER

@<TRIPOS>ATOM
      1 C         141.7665  138.6761  161.9810 C.ar    1  UNL1        0.0541
      2 C         143.0542  137.9432  161.7468 C.ar    1  UNL1        0.0180
      3 C         143.4855  137.6129  160.3486 C.ar    1  UNL1        0.0382
      4 C         142.6293  138.0154  159.1847 C.ar    1  UNL1        0.1385
      5 C         141.3416  138.7482  159.4189 C.ar    1  UNL1        0.0382
      6 C         140.9102  139.0786  160.8169 C.ar    1  UNL1        0.0180
      7 O         138.7842  139.3985  168.1318 O.2     1  UNL1       -0.2699
      8 C         140.0409  139.9975  167.5734 C.2     1  UNL1        0.2494
      9 N         140.4723  139.6671  166.1753 N.am    1  UNL1       -0.2660
     10 C         141.7291  140.2661  165.6169 C.3     1  UNL1        0.1160
     11 C         142.1604  139.9357  164.2187 C.3     1  UNL1        0.1197
     12 N         141.3351  139.0064  163.3791 N.am    1  UNL1       -0.2555
     13 C         140.0783  138.4074  163.9375 C.2     1  UNL1        0.2497
     14 O         139.2530  137.4781  163.0978 O.2     1  UNL1       -0.2727
     15 C         139.6469  138.7378  165.3356 C.3     1  UNL1        0.1799
     16 C         140.8663  140.9268  168.4132 C.ar    1  UNL1        0.0537
     17 C         142.1448  140.4436  169.0311 C.ar    1  UNL1        0.0068
     18 C         142.9701  141.3729  169.8708 C.ar    1  UNL1        0.0298
     19 C         142.5169  142.7855  170.0926 C.ar    1  UNL1        0.1401
     20 F         143.3422  143.7149  170.9324 F       1  UNL1       -0.2042
     21 C         141.2383  143.2688  169.4747 C.ar    1  UNL1        0.0298
     22 C         140.4131  142.3394  168.6350 C.ar    1  UNL1        0.0068
     23 O         143.0607  137.6850  157.7866 O.3     1  UNL1       -0.4791
     24 C         142.7471  136.3392  157.2032 C.3     1  UNL1        0.1687
     25 C         143.4337  135.1145  157.7311 C.3     1  UNL1        0.0609
     26 C         143.1202  133.7687  157.1476 C.3     1  UNL1        0.0758
     27 N         142.1201  133.6475  156.0363 N.3     1  UNL1       -0.2737
     28 C         141.4334  134.8722  155.5084 C.3     1  UNL1        0.0758
     29 C         141.7470  136.2181  156.0918 C.3     1  UNL1        0.0609
     30 C         141.8065  132.3016  155.4529 C.3     1  UNL1        0.0575
     31 C         140.8224  131.7854  154.4455 C.3     1  UNL1        0.0160
     32 C         141.3631  130.3983  154.6279 C.3     1  UNL1        0.0028
     33 C         142.3473  130.9144  155.6353 C.3     1  UNL1        0.0160
@<TRIPOS>BOND
     1     7     8    2
     2     8    16    1
     3    16    17   ar
     4    17    18   ar
     5    18    19   ar
     6    19    20    1
     7    19    21   ar
     8    21    22   ar
     9     8     9   am
    10     9    10    1
    11    10    11    1
    12    11    12    1
    13    12     1    1
    14     1     2   ar
    15     2     3   ar
    16     3     4   ar
    17     4    23    1
    18    23    24    1
    19    24    25    1
    20    25    26    1
    21    26    27    1
    22    27    30    1
    23    30    31    1
    24    31    32    1
    25    32    33    1
    26    27    28    1
    27    28    29    1
    28     4     5   ar
    29     5     6   ar
    30    12    13   am
    31    13    14    2
    32    13    15    1
    33    22    16   ar
    34    15     9    1
    35     6     1   ar
    36    29    24    1
    37    33    30    1
@<TRIPOS>MOLECULE
*****
 33 37 0 0 0
SMALL
GASTEIGER

@<TRIPOS>ATOM
      1 C         141.2370  139.0626  162.0209 C.ar    1  UNL1        0.0541
      2 C         140.4570  139.7599  160.9460 C.ar    1  UNL1        0.0180
      3 C         140.7783  139.5077  159.5027 C.ar    1  UNL1        0.0382
      4 C         141.8794  138.5581  159.1342 C.ar    1  UNL1        0.1385
      5 C         142.6594  137.8608  160.2091 C.ar    1  UNL1        0.0382
      6 C         142.3383  138.1130  161.6524 C.ar    1  UNL1        0.0180
      7 O         138.7697  139.4007  168.4277 O.2     1  UNL1       -0.2699
      8 C         139.9524  140.0715  167.7942 C.2     1  UNL1        0.2494
      9 N         140.2735  139.8193  166.3509 N.am    1  UNL1       -0.2660
     10 C         141.4562  140.4901  165.7174 C.3     1  UNL1        0.1160
     11 C         141.7773  140.2379  164.2740 C.3     1  UNL1        0.1197
     12 N         140.9159  139.3148  163.4642 N.am    1  UNL1       -0.2555
     13 C         139.7332  138.6440  164.0977 C.2     1  UNL1        0.2497
     14 O         138.8718  137.7209  163.2880 O.2     1  UNL1       -0.2727
     15 C         139.4120  138.8962  165.5410 C.3     1  UNL1        0.1799
     16 C         140.8138  140.9946  168.6041 C.ar    1  UNL1        0.0537
     17 C         142.1156  140.5053  169.1662 C.ar    1  UNL1        0.0068
     18 C         142.9770  141.4284  169.9760 C.ar    1  UNL1        0.0298
     19 C         142.5366  142.8408  170.2238 C.ar    1  UNL1        0.1401
     20 F         143.3981  143.7639  171.0336 F       1  UNL1       -0.2042
     21 C         141.2349  143.3300  169.6617 C.ar    1  UNL1        0.0298
     22 C         140.3735  142.4069  168.8519 C.ar    1  UNL1        0.0068
     23 O         142.2006  138.3059  157.6909 O.3     1  UNL1       -0.4791
     24 C         143.3343  139.0378  157.0358 C.3     1  UNL1        0.1687
     25 C         143.8864  138.5502  155.7292 C.3     1  UNL1        0.0609
     26 C         145.0200  139.2821  155.0741 C.3     1  UNL1        0.0758
     27 N         145.6016  140.5016  155.7257 N.3     1  UNL1       -0.2737
     28 C         145.0495  140.9893  157.0324 C.3     1  UNL1        0.0758
     29 C         143.9158  140.2574  157.6875 C.3     1  UNL1        0.0609
     30 C         146.7352  141.2335  155.0706 C.3     1  UNL1        0.0575
     31 C         147.0747  141.6205  153.6617 C.3     1  UNL1        0.0160
     32 C         148.3385  142.2686  154.1441 C.3     1  UNL1        0.0028
     33 C         147.9991  141.8816  155.5531 C.3     1  UNL1        0.0160
@<TRIPOS>BOND
     1     7     8    2
     2     8    16    1
     3    16    17   ar
     4    17    18   ar
     5    18    19   ar
     6    19    20    1
     7    19    21   ar
     8    21    22   ar
     9     8     9   am
    10     9    10    1
    11    10    11    1
    12    11    12    1
    13    12     1    1
    14     1     2   ar
    15     2     3   ar
    16     3     4   ar
    17     4    23    1
    18    23    24    1
    19    24    25    1
    20    25    26    1
    21    26    27    1
    22    27    30    1
    23    30    31    1
    24    31    32    1
    25    32    33    1
    26    27    28    1
    27    28    29    1
    28     4     5   ar
    29     5     6   ar
    30    12    13   am
    31    13    14    2
    32    13    15    1
    33    22    16   ar
    34    15     9    1
    35     6     1   ar
    36    29    24    1
    37    33    30    1
@<TRIPOS>MOLECULE
*****
 33 37 0 0 0
SMALL
GASTEIGER

@<TRIPOS>ATOM
      1 C         139.9898  141.5729  161.5994 C.ar    1  UNL1        0.0541
      2 C         140.6088  140.5563  160.6865 C.ar    1  UNL1        0.0180
      3 C         140.6303  140.7929  159.2053 C.ar    1  UNL1        0.0382
      4 C         140.0329  142.0460  158.6372 C.ar    1  UNL1        0.1385
      5 C         139.4139  143.0626  159.5502 C.ar    1  UNL1        0.0382
      6 C         139.3924  142.8261  161.0312 C.ar    1  UNL1        0.0180
      7 O         138.9702  139.6078  168.1069 O.2     1  UNL1       -0.2699
      8 C         139.9036  140.6268  167.5237 C.2     1  UNL1        0.2494
      9 N         139.9252  140.8634  166.0426 N.am    1  UNL1       -0.2660
     10 C         140.8586  141.8824  165.4594 C.3     1  UNL1        0.1160
     11 C         140.8801  142.1189  163.9782 C.3     1  UNL1        0.1197
     12 N         139.9683  141.3364  163.0804 N.am    1  UNL1       -0.2555
     13 C         139.0348  140.3173  163.6637 C.2     1  UNL1        0.2497
     14 O         138.1230  139.5348  162.7659 O.2     1  UNL1       -0.2727
     15 C         139.0133  140.0808  165.1448 C.3     1  UNL1        0.1799
     16 C         140.8156  141.4094  168.4215 C.ar    1  UNL1        0.0537
     17 C         142.1848  140.8862  168.7398 C.ar    1  UNL1        0.0068
     18 C         143.0966  141.6688  169.6377 C.ar    1  UNL1        0.0298
     19 C         142.6392  142.9745  170.2172 C.ar    1  UNL1        0.1401
     20 F         143.5511  143.7571  171.1150 F       1  UNL1       -0.2042
     21 C         141.2699  143.4977  169.8989 C.ar    1  UNL1        0.0298
     22 C         140.3581  142.7151  169.0010 C.ar    1  UNL1        0.0068
     23 O         140.0544  142.2825  157.1562 O.3     1  UNL1       -0.4791
     24 C         139.9359  143.6775  156.6176 C.3     1  UNL1        0.1687
     25 C         138.6196  144.1696  156.0931 C.3     1  UNL1        0.0609
     26 C         138.5010  145.5646  155.5546 C.3     1  UNL1        0.0758
     27 N         139.6988  146.4674  155.5405 N.3     1  UNL1       -0.2737
     28 C         141.0152  145.9753  156.0651 C.3     1  UNL1        0.0758
     29 C         141.1337  144.5804  156.6036 C.3     1  UNL1        0.0609
     30 C         139.5802  147.8624  155.0020 C.3     1  UNL1        0.0575
     31 C         138.8606  149.1070  155.4299 C.3     1  UNL1        0.0160
     32 C         139.4126  149.8351  154.2404 C.3     1  UNL1        0.0028
     33 C         140.1323  148.5906  153.8124 C.3     1  UNL1        0.0160
@<TRIPOS>BOND
     1     7     8    2
     2     8    16    1
     3    16    17   ar
     4    17    18   ar
     5    18    19   ar
     6    19    20    1
     7    19    21   ar
     8    21    22   ar
     9     8     9   am
    10     9    10    1
    11    10    11    1
    12    11    12    1
    13    12     1    1
    14     1     2   ar
    15     2     3   ar
    16     3     4   ar
    17     4    23    1
    18    23    24    1
    19    24    25    1
    20    25    26    1
    21    26    27    1
    22    27    30    1
    23    30    31    1
    24    31    32    1
    25    32    33    1
    26    27    28    1
    27    28    29    1
    28     4     5   ar
    29     5     6   ar
    30    12    13   am
    31    13    14    2
    32    13    15    1
    33    22    16   ar
    34    15     9    1
    35     6     1   ar
    36    29    24    1
    37    33    30    1
@<TRIPOS>MOLECULE
*****
 33 37 0 0 0
SMALL
GASTEIGER

@<TRIPOS>ATOM
      1 C         140.6963  138.4869  158.5829 C.ar    1  UNL1        0.0541
      2 C         142.1799  138.6043  158.3955 C.ar    1  UNL1        0.0180
      3 C         142.8366  137.9803  157.1998 C.ar    1  UNL1        0.0382
      4 C         142.0096  137.2389  156.1916 C.ar    1  UNL1        0.1385
      5 C         140.5260  137.1216  156.3790 C.ar    1  UNL1        0.0382
      6 C         139.8693  137.7455  157.5746 C.ar    1  UNL1        0.0180
      7 O         136.9228  141.9317  163.1811 O.2     1  UNL1       -0.2699
      8 C         138.0698  140.9828  163.3653 C.2     1  UNL1        0.2494
      9 N         138.7265  140.3588  162.1697 N.am    1  UNL1       -0.2660
     10 C         139.8735  139.4099  162.3539 C.3     1  UNL1        0.1160
     11 C         140.5301  138.7859  161.1582 C.3     1  UNL1        0.1197
     12 N         140.0397  139.1109  159.7785 N.am    1  UNL1       -0.2555
     13 C         138.8927  140.0598  159.5942 C.2     1  UNL1        0.2497
     14 O         138.4023  140.3847  158.2144 O.2     1  UNL1       -0.2727
     15 C         138.2361  140.6838  160.7898 C.3     1  UNL1        0.1799
     16 C         138.5602  140.6579  164.7452 C.ar    1  UNL1        0.0537
     17 C         139.5510  141.5590  165.4206 C.ar    1  UNL1        0.0068
     18 C         140.0413  141.2340  166.8004 C.ar    1  UNL1        0.0298
     19 C         139.5409  140.0079  167.5048 C.ar    1  UNL1        0.1401
     20 F         140.0313  139.6830  168.8847 F       1  UNL1       -0.2042
     21 C         138.5501  139.1068  166.8294 C.ar    1  UNL1        0.0298
     22 C         138.0598  139.4317  165.4496 C.ar    1  UNL1        0.0068
     23 O         142.6662  136.6150  154.9960 O.3     1  UNL1       -0.4791
     24 C         142.9153  135.1362  154.9637 C.3     1  UNL1        0.1687
     25 C         143.7434  134.4914  156.0354 C.3     1  UNL1        0.0609
     26 C         143.9925  133.0126  156.0030 C.3     1  UNL1        0.0758
     27 N         143.4135  132.1785  154.8989 N.3     1  UNL1       -0.2737
     28 C         142.5854  132.8232  153.8271 C.3     1  UNL1        0.0758
     29 C         142.3363  134.3020  153.8595 C.3     1  UNL1        0.0609
     30 C         143.6626  130.6997  154.8666 C.3     1  UNL1        0.0575
     31 C         142.8274  129.4896  154.5700 C.3     1  UNL1        0.0160
     32 C         144.0149  128.6084  154.8208 C.3     1  UNL1        0.0028
     33 C         144.8503  129.8184  155.1173 C.3     1  UNL1        0.0160
@<TRIPOS>BOND
     1     7     8    2
     2     8    16    1
     3    16    17   ar
     4    17    18   ar
     5    18    19   ar
     6    19    20    1
     7    19    21   ar
     8    21    22   ar
     9     8     9   am
    10     9    10    1
    11    10    11    1
    12    11    12    1
    13    12     1    1
    14     1     2   ar
    15     2     3   ar
    16     3     4   ar
    17     4    23    1
    18    23    24    1
    19    24    25    1
    20    25    26    1
    21    26    27    1
    22    27    30    1
    23    30    31    1
    24    31    32    1
    25    32    33    1
    26    27    28    1
    27    28    29    1
    28     4     5   ar
    29     5     6   ar
    30    12    13   am
    31    13    14    2
    32    13    15    1
    33    22    16   ar
    34    15     9    1
    35     6     1   ar
    36    29    24    1
    37    33    30    1
@<TRIPOS>MOLECULE
*****
 33 37 0 0 0
SMALL
GASTEIGER

@<TRIPOS>ATOM
      1 C         143.1119  141.0778  161.7366 C.ar    1  UNL1        0.0541
      2 C         143.8806  142.2866  161.2917 C.ar    1  UNL1        0.0180
      3 C         144.0183  142.5914  159.8294 C.ar    1  UNL1        0.0382
      4 C         143.3873  141.6876  158.8122 C.ar    1  UNL1        0.1385
      5 C         142.6186  140.4788  159.2571 C.ar    1  UNL1        0.0382
      6 C         142.4809  140.1739  160.7193 C.ar    1  UNL1        0.0180
      7 O         143.2517  138.6622  168.1705 O.2     1  UNL1       -0.2699
      8 C         142.5610  139.8584  167.5855 C.2     1  UNL1        0.2494
      9 N         142.6987  140.1632  166.1233 N.am    1  UNL1       -0.2660
     10 C         142.0081  141.3594  165.5382 C.3     1  UNL1        0.1160
     11 C         142.1458  141.6642  164.0759 C.3     1  UNL1        0.1197
     12 N         142.9742  140.7730  163.1988 N.am    1  UNL1       -0.2555
     13 C         143.6649  139.5768  163.7839 C.2     1  UNL1        0.2497
     14 O         144.4932  138.6856  162.9067 O.2     1  UNL1       -0.2727
     15 C         143.5271  139.2720  165.2460 C.3     1  UNL1        0.1799
     16 C         141.7326  140.7496  168.4627 C.ar    1  UNL1        0.0537
     17 C         142.2934  142.0521  168.9514 C.ar    1  UNL1        0.0068
     18 C         141.4650  142.9433  169.8286 C.ar    1  UNL1        0.0298
     19 C         140.0758  142.5320  170.2170 C.ar    1  UNL1        0.1401
     20 F         139.2474  143.4233  171.0943 F       1  UNL1       -0.2042
     21 C         139.5150  141.2295  169.7283 C.ar    1  UNL1        0.0298
     22 C         140.3434  140.3383  168.8511 C.ar    1  UNL1        0.0068
     23 O         143.5250  141.9924  157.3500 O.3     1  UNL1       -0.4791
     24 C         144.8745  141.9418  156.6971 C.3     1  UNL1        0.1687
     25 C         146.0512  142.5995  157.3551 C.3     1  UNL1        0.0609
     26 C         147.4007  142.5488  156.7022 C.3     1  UNL1        0.0758
     27 N         147.5736  141.8405  155.3914 N.3     1  UNL1       -0.2737
     28 C         146.3970  141.1827  154.7334 C.3     1  UNL1        0.0758
     29 C         145.0474  141.2334  155.3862 C.3     1  UNL1        0.0609
     30 C         148.9231  141.7898  154.7386 C.3     1  UNL1        0.0575
     31 C         150.3371  141.7012  155.2312 C.3     1  UNL1        0.0160
     32 C         150.8316  141.7182  153.8153 C.3     1  UNL1        0.0028
     33 C         149.4177  141.8068  153.3225 C.3     1  UNL1        0.0160
@<TRIPOS>BOND
     1     7     8    2
     2     8    16    1
     3    16    17   ar
     4    17    18   ar
     5    18    19   ar
     6    19    20    1
     7    19    21   ar
     8    21    22   ar
     9     8     9   am
    10     9    10    1
    11    10    11    1
    12    11    12    1
    13    12     1    1
    14     1     2   ar
    15     2     3   ar
    16     3     4   ar
    17     4    23    1
    18    23    24    1
    19    24    25    1
    20    25    26    1
    21    26    27    1
    22    27    30    1
    23    30    31    1
    24    31    32    1
    25    32    33    1
    26    27    28    1
    27    28    29    1
    28     4     5   ar
    29     5     6   ar
    30    12    13   am
    31    13    14    2
    32    13    15    1
    33    22    16   ar
    34    15     9    1
    35     6     1   ar
    36    29    24    1
    37    33    30    1
@<TRIPOS>MOLECULE
*****
 33 37 0 0 0
SMALL
GASTEIGER

@<TRIPOS>ATOM
      1 C         142.7797  141.2267  161.7749 C.ar    1  UNL1        0.0541
      2 C         141.6703  140.8169  160.8521 C.ar    1  UNL1        0.0180
      3 C         141.7595  141.1282  159.3875 C.ar    1  UNL1        0.0382
      4 C         142.9580  141.8492  158.8456 C.ar    1  UNL1        0.1385
      5 C         144.0674  142.2589  159.7683 C.ar    1  UNL1        0.0382
      6 C         143.9782  141.9477  161.2329 C.ar    1  UNL1        0.0180
      7 O         143.1581  138.8010  168.1953 O.2     1  UNL1       -0.2699
      8 C         142.4231  139.9817  167.6334 C.2     1  UNL1        0.2494
      9 N         142.5122  140.2930  166.1688 N.am    1  UNL1       -0.2660
     10 C         141.7772  141.4736  165.6068 C.3     1  UNL1        0.1160
     11 C         141.8664  141.7849  164.1421 C.3     1  UNL1        0.1197
     12 N         142.6905  140.9154  163.2395 N.am    1  UNL1       -0.2555
     13 C         143.4255  139.7348  163.8014 C.2     1  UNL1        0.2497
     14 O         144.2497  138.8653  162.8987 O.2     1  UNL1       -0.2727
     15 C         143.3364  139.4235  165.2660 C.3     1  UNL1        0.1799
     16 C         141.5989  140.8512  168.5361 C.ar    1  UNL1        0.0537
     17 C         142.1217  142.1877  168.9723 C.ar    1  UNL1        0.0068
     18 C         141.2975  143.0571  169.8750 C.ar    1  UNL1        0.0298
     19 C         139.9506  142.5899  170.3415 C.ar    1  UNL1        0.1401
     20 F         139.1264  143.4593  171.2443 F       1  UNL1       -0.2042
     21 C         139.4279  141.2533  169.9053 C.ar    1  UNL1        0.0298
     22 C         140.2520  140.3840  169.0026 C.ar    1  UNL1        0.0068
     23 O         143.0471  142.1604  157.3809 O.3     1  UNL1       -0.4791
     24 C         142.3495  143.3672  156.8268 C.3     1  UNL1        0.1687
     25 C         142.3936  144.6676  157.5731 C.3     1  UNL1        0.0609
     26 C         141.6960  145.8744  157.0190 C.3     1  UNL1        0.0758
     27 N         140.9543  145.7808  155.7186 N.3     1  UNL1       -0.2737
     28 C         140.9102  144.4803  154.9722 C.3     1  UNL1        0.0758
     29 C         141.6078  143.2735  155.5263 C.3     1  UNL1        0.0609
     30 C         140.2567  146.9875  155.1644 C.3     1  UNL1        0.0575
     31 C         139.1304  147.8655  155.6232 C.3     1  UNL1        0.0160
     32 C         139.2702  148.6942  154.3808 C.3     1  UNL1        0.0028
     33 C         140.3965  147.8162  153.9219 C.3     1  UNL1        0.0160
@<TRIPOS>BOND
     1     7     8    2
     2     8    16    1
     3    16    17   ar
     4    17    18   ar
     5    18    19   ar
     6    19    20    1
     7    19    21   ar
     8    21    22   ar
     9     8     9   am
    10     9    10    1
    11    10    11    1
    12    11    12    1
    13    12     1    1
    14     1     2   ar
    15     2     3   ar
    16     3     4   ar
    17     4    23    1
    18    23    24    1
    19    24    25    1
    20    25    26    1
    21    26    27    1
    22    27    30    1
    23    30    31    1
    24    31    32    1
    25    32    33    1
    26    27    28    1
    27    28    29    1
    28     4     5   ar
    29     5     6   ar
    30    12    13   am
    31    13    14    2
    32    13    15    1
    33    22    16   ar
    34    15     9    1
    35     6     1   ar
    36    29    24    1
    37    33    30    1
@<TRIPOS>MOLECULE
*****
 33 37 0 0 0
SMALL
GASTEIGER

@<TRIPOS>ATOM
      1 C         141.1475  139.7571  161.5096 C.ar    1  UNL1        0.0541
      2 C         141.8337  140.7665  160.6377 C.ar    1  UNL1        0.0180
      3 C         141.5650  140.7892  159.1621 C.ar    1  UNL1        0.0382
      4 C         140.6101  139.8025  158.5584 C.ar    1  UNL1        0.1385
      5 C         139.9239  138.7930  159.4303 C.ar    1  UNL1        0.0382
      6 C         140.1925  138.7703  160.9058 C.ar    1  UNL1        0.0180
      7 O         143.2516  138.7303  167.9724 O.2     1  UNL1       -0.2699
      8 C         142.2221  139.6662  167.4118 C.2     1  UNL1        0.2494
      9 N         141.9534  139.6889  165.9363 N.am    1  UNL1       -0.2660
     10 C         140.9240  140.6248  165.3757 C.3     1  UNL1        0.1160
     11 C         140.6553  140.6475  163.9001 C.3     1  UNL1        0.1197
     12 N         141.4161  139.7343  162.9851 N.am    1  UNL1       -0.2555
     13 C         142.4456  138.7984  163.5457 C.2     1  UNL1        0.2497
     14 O         143.2064  137.8853  162.6307 O.2     1  UNL1       -0.2727
     15 C         142.7143  138.7757  165.0212 C.3     1  UNL1        0.1799
     16 C         141.4613  140.5794  168.3269 C.ar    1  UNL1        0.0537
     17 C         140.1972  140.1041  168.9796 C.ar    1  UNL1        0.0068
     18 C         139.4364  141.0173  169.8946 C.ar    1  UNL1        0.0298
     19 C         139.9397  142.4058  170.1569 C.ar    1  UNL1        0.1401
     20 F         139.1789  143.3190  171.0719 F       1  UNL1       -0.2042
     21 C         141.2038  142.8811  169.5041 C.ar    1  UNL1        0.0298
     22 C         141.9646  141.9679  168.5891 C.ar    1  UNL1        0.0068
     23 O         140.3414  139.8252  157.0829 O.3     1  UNL1       -0.4791
     24 C         138.9602  140.1182  156.5765 C.3     1  UNL1        0.1687
     25 C         138.4401  139.4074  155.3623 C.3     1  UNL1        0.0609
     26 C         137.0589  139.7004  154.8559 C.3     1  UNL1        0.0758
     27 N         136.1979  140.7042  155.5636 N.3     1  UNL1       -0.2737
     28 C         136.7180  141.4151  156.7778 C.3     1  UNL1        0.0758
     29 C         138.0992  141.1221  157.2842 C.3     1  UNL1        0.0609
     30 C         134.8167  140.9972  155.0571 C.3     1  UNL1        0.0575
     31 C         134.2327  141.3799  153.7296 C.3     1  UNL1        0.0160
     32 C         132.8634  141.4115  154.3409 C.3     1  UNL1        0.0028
     33 C         133.4473  141.0288  155.6686 C.3     1  UNL1        0.0160
@<TRIPOS>BOND
     1     7     8    2
     2     8    16    1
     3    16    17   ar
     4    17    18   ar
     5    18    19   ar
     6    19    20    1
     7    19    21   ar
     8    21    22   ar
     9     8     9   am
    10     9    10    1
    11    10    11    1
    12    11    12    1
    13    12     1    1
    14     1     2   ar
    15     2     3   ar
    16     3     4   ar
    17     4    23    1
    18    23    24    1
    19    24    25    1
    20    25    26    1
    21    26    27    1
    22    27    30    1
    23    30    31    1
    24    31    32    1
    25    32    33    1
    26    27    28    1
    27    28    29    1
    28     4     5   ar
    29     5     6   ar
    30    12    13   am
    31    13    14    2
    32    13    15    1
    33    22    16   ar
    34    15     9    1
    35     6     1   ar
    36    29    24    1
    37    33    30    1
@<TRIPOS>MOLECULE
*****
 33 37 0 0 0
SMALL
GASTEIGER

@<TRIPOS>ATOM
      1 C         140.8584  139.8082  160.3771 C.ar    1  UNL1        0.0541
      2 C         142.1031  140.0138  159.5656 C.ar    1  UNL1        0.0180
      3 C         142.2428  139.3530  158.2262 C.ar    1  UNL1        0.0382
      4 C         141.1380  138.4866  157.6984 C.ar    1  UNL1        0.1385
      5 C         139.8933  138.2810  158.5099 C.ar    1  UNL1        0.0382
      6 C         139.7535  138.9418  159.8493 C.ar    1  UNL1        0.0180
      7 O         139.6218  143.7850  165.8457 O.2     1  UNL1       -0.2699
      8 C         140.2992  142.4513  165.7344 C.2     1  UNL1        0.2494
      9 N         140.4390  141.7905  164.3951 N.am    1  UNL1       -0.2660
     10 C         141.1164  140.4568  164.2839 C.3     1  UNL1        0.1160
     11 C         141.2562  139.7961  162.9445 C.3     1  UNL1        0.1197
     12 N         140.7186  140.4690  161.7164 N.am    1  UNL1       -0.2555
     13 C         140.0412  141.8027  161.8277 C.2     1  UNL1        0.2497
     14 O         139.5036  142.4756  160.5997 O.2     1  UNL1       -0.2727
     15 C         139.9014  142.4634  163.1670 C.3     1  UNL1        0.1799
     16 C         140.8369  141.7784  166.9626 C.ar    1  UNL1        0.0537
     17 C         142.2252  142.0863  167.4396 C.ar    1  UNL1        0.0068
     18 C         142.7628  141.4134  168.6676 C.ar    1  UNL1        0.0298
     19 C         141.9120  140.4325  169.4187 C.ar    1  UNL1        0.1401
     20 F         142.4496  139.7596  170.6468 F       1  UNL1       -0.2042
     21 C         140.5236  140.1246  168.9417 C.ar    1  UNL1        0.0298
     22 C         139.9861  140.7975  167.7136 C.ar    1  UNL1        0.0068
     23 O         141.2778  137.8258  156.3591 O.3     1  UNL1       -0.4791
     24 C         141.7643  136.4098  156.2685 C.3     1  UNL1        0.1687
     25 C         142.9338  135.9642  157.0954 C.3     1  UNL1        0.0609
     26 C         143.4203  134.5482  157.0048 C.3     1  UNL1        0.0758
     27 N         142.7373  133.5778  156.0874 N.3     1  UNL1       -0.2737
     28 C         141.5678  134.0234  155.2604 C.3     1  UNL1        0.0758
     29 C         141.0813  135.4394  155.3510 C.3     1  UNL1        0.0609
     30 C         143.2239  132.1618  155.9968 C.3     1  UNL1        0.0575
     31 C         142.5755  130.8110  156.0660 C.3     1  UNL1        0.0160
     32 C         143.9119  130.1593  155.8687 C.3     1  UNL1        0.0028
     33 C         144.5604  131.5100  155.7994 C.3     1  UNL1        0.0160
@<TRIPOS>BOND
     1     7     8    2
     2     8    16    1
     3    16    17   ar
     4    17    18   ar
     5    18    19   ar
     6    19    20    1
     7    19    21   ar
     8    21    22   ar
     9     8     9   am
    10     9    10    1
    11    10    11    1
    12    11    12    1
    13    12     1    1
    14     1     2   ar
    15     2     3   ar
    16     3     4   ar
    17     4    23    1
    18    23    24    1
    19    24    25    1
    20    25    26    1
    21    26    27    1
    22    27    30    1
    23    30    31    1
    24    31    32    1
    25    32    33    1
    26    27    28    1
    27    28    29    1
    28     4     5   ar
    29     5     6   ar
    30    12    13   am
    31    13    14    2
    32    13    15    1
    33    22    16   ar
    34    15     9    1
    35     6     1   ar
    36    29    24    1
    37    33    30    1
@<TRIPOS>MOLECULE
*****
 33 37 0 0 0
SMALL
GASTEIGER

@<TRIPOS>ATOM
      1 C         138.2212  139.3623  155.3407 C.ar    1  UNL1        0.0541
      2 C         137.2838  139.0840  154.2032 C.ar    1  UNL1        0.0180
      3 C         135.9788  139.8177  154.1101 C.ar    1  UNL1        0.0382
      4 C         135.6111  140.8296  155.1545 C.ar    1  UNL1        0.1385
      5 C         136.5485  141.1079  156.2920 C.ar    1  UNL1        0.0382
      6 C         137.8535  140.3743  156.3851 C.ar    1  UNL1        0.0180
      7 O         144.7328  137.1692  155.5355 O.2     1  UNL1       -0.2699
      8 C         143.4411  136.4276  155.7132 C.2     1  UNL1        0.2494
      9 N         142.1362  137.1612  155.6201 N.am    1  UNL1       -0.2660
     10 C         140.8445  136.4196  155.7978 C.3     1  UNL1        0.1160
     11 C         139.5394  137.1534  155.7046 C.3     1  UNL1        0.1197
     12 N         139.5261  138.6286  155.4338 N.am    1  UNL1       -0.2555
     13 C         140.8178  139.3702  155.2561 C.2     1  UNL1        0.2497
     14 O         140.8045  140.8455  154.9853 O.2     1  UNL1       -0.2727
     15 C         142.1228  138.6366  155.3493 C.3     1  UNL1        0.1799
     16 C         143.4545  134.9523  155.9840 C.ar    1  UNL1        0.0537
     17 C         143.6204  134.4488  157.3872 C.ar    1  UNL1        0.0068
     18 C         143.6337  132.9735  157.6579 C.ar    1  UNL1        0.0298
     19 C         143.4812  132.0017  156.5255 C.ar    1  UNL1        0.1401
     20 F         143.4945  130.5264  156.7963 F       1  UNL1       -0.2042
     21 C         143.3153  132.5052  155.1224 C.ar    1  UNL1        0.0298
     22 C         143.3020  133.9805  154.8516 C.ar    1  UNL1        0.0068
     23 O         134.3061  141.5633  155.0613 O.3     1  UNL1       -0.4791
     24 C         133.0786  140.9956  155.7102 C.3     1  UNL1        0.1687
     25 C         131.7209  141.4911  155.3089 C.3     1  UNL1        0.0609
     26 C         130.4934  140.9235  155.9577 C.3     1  UNL1        0.0758
     27 N         130.6236  139.8603  157.0078 N.3     1  UNL1       -0.2737
     28 C         131.9814  139.3647  157.4091 C.3     1  UNL1        0.0758
     29 C         133.2089  139.9324  156.7602 C.3     1  UNL1        0.0609
     30 C         129.3961  139.2926  157.6566 C.3     1  UNL1        0.0575
     31 C         129.0091  137.9499  158.2019 C.3     1  UNL1        0.0160
     32 C         127.6601  138.4898  158.5741 C.3     1  UNL1        0.0028
     33 C         128.0470  139.8326  158.0289 C.3     1  UNL1        0.0160
@<TRIPOS>BOND
     1     7     8    2
     2     8    16    1
     3    16    17   ar
     4    17    18   ar
     5    18    19   ar
     6    19    20    1
     7    19    21   ar
     8    21    22   ar
     9     8     9   am
    10     9    10    1
    11    10    11    1
    12    11    12    1
    13    12     1    1
    14     1     2   ar
    15     2     3   ar
    16     3     4   ar
    17     4    23    1
    18    23    24    1
    19    24    25    1
    20    25    26    1
    21    26    27    1
    22    27    30    1
    23    30    31    1
    24    31    32    1
    25    32    33    1
    26    27    28    1
    27    28    29    1
    28     4     5   ar
    29     5     6   ar
    30    12    13   am
    31    13    14    2
    32    13    15    1
    33    22    16   ar
    34    15     9    1
    35     6     1   ar
    36    29    24    1
    37    33    30    1
