@<TRIPOS>MOLECULE
*****
 33 35 0 0 0
SMALL
GASTEIGER

@<TRIPOS>ATOM
      1 C         142.0179  143.8887  161.6868 C.3     1  UNL1        0.0782
      2 C         141.7635  142.4282  161.9155 C.3     1  UNL1        0.0372
      3 C         142.3552  141.7419  163.1108 C.3     1  UNL1        0.0741
      4 N         143.2015  142.5161  164.0775 N.3     1  UNL1       -0.2689
      5 C         143.4560  143.9766  163.8489 C.3     1  UNL1        0.0741
      6 C         142.8642  144.6628  162.6535 C.3     1  UNL1        0.0372
      7 C         140.2411  145.4796  160.6565 C.2     1  UNL1        0.2301
      8 O         139.6494  146.1659  159.4611 O.2     1  UNL1       -0.2745
      9 N         141.4262  144.5749  160.4915 N.am    1  UNL1       -0.2790
     10 C         142.0195  144.3566  159.1312 C.3     1  UNL1        0.1148
     11 C         139.6478  145.6980  162.0167 C.3     1  UNL1        0.1116
     12 C         138.1342  142.1941  164.4003 C.ar    1  UNL1        0.0503
     13 C         137.7843  142.3199  162.9471 C.ar    1  UNL1        0.0144
     14 C         138.2888  143.4879  162.1526 C.ar    1  UNL1       -0.0025
     15 C         139.1433  144.5300  162.8112 C.ar    1  UNL1       -0.0130
     16 C         139.4932  144.4042  164.2644 C.ar    1  UNL1       -0.0025
     17 C         138.9886  143.2362  165.0589 C.ar    1  UNL1        0.0144
     18 C         138.0552  138.7376  166.3487 C.3     1  UNL1        0.0949
     19 C         138.5598  139.9056  165.5542 C.2     1  UNL1        0.2266
     20 O         139.9945  139.9530  165.1190 O.2     1  UNL1       -0.2748
     21 N         137.6296  141.0261  165.1948 N.am    1  UNL1       -0.2839
     22 H         136.6880  140.9950  165.4804 H       1  UNL1        0.1549
     23 C         143.7933  141.8298  165.2728 C.3     1  UNL1        0.0991
     24 C         142.9063  141.3851  166.3978 C.ar    1  UNL1       -0.0062
     25 C         141.9360  142.3488  167.0138 C.ar    1  UNL1       -0.0030
     26 C         141.0490  141.9041  168.1387 C.ar    1  UNL1        0.0036
     27 C         141.1324  140.4956  168.6477 C.ar    1  UNL1        0.0714
     28 C         142.1028  139.5317  168.0317 C.ar    1  UNL1        0.0036
     29 C         142.9898  139.9765  166.9067 C.ar    1  UNL1       -0.0030
     30 C         140.2455  140.0508  169.7726 C.3     1  UNL1        0.4186
     31 F         139.3585  139.6061  170.8976 F       1  UNL1       -0.1659
     32 F         141.3365  139.1543  170.2784 F       1  UNL1       -0.1659
     33 F         139.1544  140.9473  169.2668 F       1  UNL1       -0.1659
@<TRIPOS>BOND
     1    18    19    1
     2    19    20    2
     3    19    21   am
     4    21    12    1
     5    12    13   ar
     6    13    14   ar
     7    14    15   ar
     8    15    11    1
     9    11     7    1
    10     7     8    2
    11     7     9   am
    12     9    10    1
    13     9     1    1
    14     1     2    1
    15     2     3    1
    16     3     4    1
    17     4    23    1
    18    23    24    1
    19    24    25   ar
    20    25    26   ar
    21    26    27   ar
    22    27    30    1
    23    30    31    1
    24    30    32    1
    25    30    33    1
    26    27    28   ar
    27    28    29   ar
    28     4     5    1
    29     5     6    1
    30    15    16   ar
    31    16    17   ar
    32    17    12   ar
    33     6     1    1
    34    29    24   ar
    35    21    22    1
@<TRIPOS>MOLECULE
*****
 33 35 0 0 0
SMALL
GASTEIGER

@<TRIPOS>ATOM
      1 C         143.1957  140.0832  161.1141 C.3     1  UNL1        0.0782
      2 C         141.8216  140.1676  161.7097 C.3     1  UNL1        0.0372
      3 C         141.5926  139.7436  163.1301 C.3     1  UNL1        0.0741
      4 N         142.7376  139.2351  163.9550 N.3     1  UNL1       -0.2689
      5 C         144.1117  139.1507  163.3594 C.3     1  UNL1        0.0741
      6 C         144.3407  139.5747  161.9389 C.3     1  UNL1        0.0372
      7 C         144.0890  141.8198  159.4006 C.2     1  UNL1        0.2301
      8 O         144.3181  142.2438  157.9800 O.2     1  UNL1       -0.2745
      9 N         143.4248  140.5072  159.6936 N.am    1  UNL1       -0.2790
     10 C         142.9897  139.6186  158.5662 C.3     1  UNL1        0.1148
     11 C         144.5241  142.7084  160.5279 C.3     1  UNL1        0.1116
     12 C         141.4501  144.6226  163.1993 C.ar    1  UNL1        0.0503
     13 C         142.7430  144.1286  163.7776 C.ar    1  UNL1        0.0144
     14 C         143.7677  143.4906  162.8871 C.ar    1  UNL1       -0.0025
     15 C         143.4995  143.3465  161.4184 C.ar    1  UNL1       -0.0130
     16 C         142.2066  143.8405  160.8401 C.ar    1  UNL1       -0.0025
     17 C         141.1820  144.4786  161.7306 C.ar    1  UNL1        0.0144
     18 C         138.4092  145.0455  165.7140 C.3     1  UNL1        0.0949
     19 C         139.4338  144.4074  164.8235 C.2     1  UNL1        0.2266
     20 O         139.4668  142.9159  164.6668 O.2     1  UNL1       -0.2748
     21 N         140.4255  145.2607  164.0898 N.am    1  UNL1       -0.2839
     22 H         140.4038  146.2396  164.1926 H       1  UNL1        0.1549
     23 C         142.5086  138.8111  165.3755 C.3     1  UNL1        0.0991
     24 C         142.6726  139.8019  166.4897 C.ar    1  UNL1       -0.0062
     25 C         142.9104  141.2495  166.1771 C.ar    1  UNL1       -0.0030
     26 C         143.0745  142.2403  167.2913 C.ar    1  UNL1        0.0036
     27 C         143.0007  141.7834  168.7181 C.ar    1  UNL1        0.0714
     28 C         142.7629  140.3357  169.0308 C.ar    1  UNL1        0.0036
     29 C         142.5988  139.3449  167.9165 C.ar    1  UNL1       -0.0030
     30 C         143.1648  142.7742  169.8323 C.3     1  UNL1        0.4186
     31 F         143.3288  143.7649  170.9466 F       1  UNL1       -0.1659
     32 F         144.5522  142.2623  170.0832 F       1  UNL1       -0.1659
     33 F         141.7773  143.2861  169.5815 F       1  UNL1       -0.1659
@<TRIPOS>BOND
     1    18    19    1
     2    19    20    2
     3    19    21   am
     4    21    12    1
     5    12    13   ar
     6    13    14   ar
     7    14    15   ar
     8    15    11    1
     9    11     7    1
    10     7     8    2
    11     7     9   am
    12     9    10    1
    13     9     1    1
    14     1     2    1
    15     2     3    1
    16     3     4    1
    17     4    23    1
    18    23    24    1
    19    24    25   ar
    20    25    26   ar
    21    26    27   ar
    22    27    30    1
    23    30    31    1
    24    30    32    1
    25    30    33    1
    26    27    28   ar
    27    28    29   ar
    28     4     5    1
    29     5     6    1
    30    15    16   ar
    31    16    17   ar
    32    17    12   ar
    33     6     1    1
    34    29    24   ar
    35    21    22    1
@<TRIPOS>MOLECULE
*****
 33 35 0 0 0
SMALL
GASTEIGER

@<TRIPOS>ATOM
      1 C         143.6094  141.2846  161.9044 C.3     1  UNL1        0.0782
      2 C         142.3126  141.6506  162.5634 C.3     1  UNL1        0.0372
      3 C         142.3000  142.1068  163.9923 C.3     1  UNL1        0.0741
      4 N         143.5843  142.1971  164.7621 N.3     1  UNL1       -0.2689
      5 C         144.8811  141.8311  164.1030 C.3     1  UNL1        0.0741
      6 C         144.8936  141.3748  162.6741 C.3     1  UNL1        0.0372
      7 C         143.7498  139.3684  160.1555 C.2     1  UNL1        0.2301
      8 O         143.7624  138.9122  158.7265 O.2     1  UNL1       -0.2745
      9 N         143.6220  140.8283  160.4755 N.am    1  UNL1       -0.2790
     10 C         143.5066  141.8319  159.3666 C.3     1  UNL1        0.1148
     11 C         143.8651  138.3648  161.2643 C.3     1  UNL1        0.1116
     12 C         140.4982  137.8675  164.2081 C.ar    1  UNL1        0.0503
     13 C         141.8903  138.1337  164.6989 C.ar    1  UNL1        0.0144
     14 C         143.0127  138.2995  163.7176 C.ar    1  UNL1       -0.0025
     15 C         142.7428  138.1990  162.2455 C.ar    1  UNL1       -0.0130
     16 C         141.3507  137.9328  161.7547 C.ar    1  UNL1       -0.0025
     17 C         140.2283  137.7670  162.7360 C.ar    1  UNL1        0.0144
     18 C         137.7834  138.7095  166.9778 C.3     1  UNL1        0.0949
     19 C         138.9058  138.8753  165.9965 C.2     1  UNL1        0.2266
     20 O         139.5580  140.2149  165.8223 O.2     1  UNL1       -0.2748
     21 N         139.3759  137.7017  165.1894 N.am    1  UNL1       -0.2839
     22 H         138.9478  136.8225  165.3037 H       1  UNL1        0.1549
     23 C         143.5717  142.6534  166.1909 C.3     1  UNL1        0.0991
     24 C         142.6631  141.9891  167.1824 C.ar    1  UNL1       -0.0062
     25 C         141.5833  142.7811  167.8582 C.ar    1  UNL1       -0.0030
     26 C         140.6746  142.1167  168.8497 C.ar    1  UNL1        0.0036
     27 C         140.8458  140.6604  169.1654 C.ar    1  UNL1        0.0714
     28 C         141.9257  139.8683  168.4897 C.ar    1  UNL1        0.0036
     29 C         142.8343  140.5327  167.4982 C.ar    1  UNL1       -0.0030
     30 C         139.9372  139.9961  170.1569 C.3     1  UNL1        0.4186
     31 F         139.0286  139.3318  171.1484 F       1  UNL1       -0.1659
     32 F         141.0236  139.0198  170.4984 F       1  UNL1       -0.1659
     33 F         138.8508  140.9724  169.8155 F       1  UNL1       -0.1659
@<TRIPOS>BOND
     1    18    19    1
     2    19    20    2
     3    19    21   am
     4    21    12    1
     5    12    13   ar
     6    13    14   ar
     7    14    15   ar
     8    15    11    1
     9    11     7    1
    10     7     8    2
    11     7     9   am
    12     9    10    1
    13     9     1    1
    14     1     2    1
    15     2     3    1
    16     3     4    1
    17     4    23    1
    18    23    24    1
    19    24    25   ar
    20    25    26   ar
    21    26    27   ar
    22    27    30    1
    23    30    31    1
    24    30    32    1
    25    30    33    1
    26    27    28   ar
    27    28    29   ar
    28     4     5    1
    29     5     6    1
    30    15    16   ar
    31    16    17   ar
    32    17    12   ar
    33     6     1    1
    34    29    24   ar
    35    21    22    1
@<TRIPOS>MOLECULE
*****
 33 35 0 0 0
SMALL
GASTEIGER

@<TRIPOS>ATOM
      1 C         138.9525  142.1663  161.1808 C.3     1  UNL1        0.0782
      2 C         140.3331  142.0308  161.7514 C.3     1  UNL1        0.0372
      3 C         140.6067  142.4590  163.1626 C.3     1  UNL1        0.0741
      4 N         139.4997  143.0227  164.0034 N.3     1  UNL1       -0.2689
      5 C         138.1191  143.1582  163.4328 C.3     1  UNL1        0.0741
      6 C         137.8455  142.7300  162.0215 C.3     1  UNL1        0.0372
      7 C         137.9777  140.4393  159.5024 C.2     1  UNL1        0.2301
      8 O         137.7040  140.0111  158.0910 O.2     1  UNL1       -0.2745
      9 N         138.6788  141.7381  159.7695 N.am    1  UNL1       -0.2790
     10 C         139.1064  142.6088  158.6253 C.3     1  UNL1        0.1148
     11 C         137.5501  139.5686  160.6466 C.3     1  UNL1        0.1116
     12 C         140.6011  138.0681  163.5945 C.ar    1  UNL1        0.0503
     13 C         140.8582  137.9468  162.1217 C.ar    1  UNL1        0.0144
     14 C         139.8413  138.4470  161.1391 C.ar    1  UNL1       -0.0025
     15 C         138.5671  139.0684  161.6292 C.ar    1  UNL1       -0.0130
     16 C         138.3099  139.1897  163.1020 C.ar    1  UNL1       -0.0025
     17 C         139.3269  138.6896  164.0846 C.ar    1  UNL1        0.0144
     18 C         143.5728  138.0313  166.2246 C.3     1  UNL1        0.0949
     19 C         142.5558  138.5315  165.2419 C.2     1  UNL1        0.2266
     20 O         142.4767  139.9954  164.9241 O.2     1  UNL1       -0.2748
     21 N         141.6180  137.5679  164.5772 N.am    1  UNL1       -0.2839
     22 H         141.6700  136.6072  164.7858 H       1  UNL1        0.1549
     23 C         139.7734  143.4509  165.4147 C.3     1  UNL1        0.0991
     24 C         140.2953  142.4591  166.4115 C.ar    1  UNL1       -0.0062
     25 C         141.5389  142.7644  167.1927 C.ar    1  UNL1       -0.0030
     26 C         142.0609  141.7726  168.1896 C.ar    1  UNL1        0.0036
     27 C         141.3393  140.4754  168.4053 C.ar    1  UNL1        0.0714
     28 C         140.0957  140.1700  167.6241 C.ar    1  UNL1        0.0036
     29 C         139.5737  141.1619  166.6272 C.ar    1  UNL1       -0.0030
     30 C         141.8613  139.4836  169.4022 C.3     1  UNL1        0.4186
     31 F         142.3833  138.4917  170.3991 F       1  UNL1       -0.1659
     32 F         140.4903  139.3613  169.9984 F       1  UNL1       -0.1659
     33 F         143.2323  139.6058  168.8060 F       1  UNL1       -0.1659
@<TRIPOS>BOND
     1    18    19    1
     2    19    20    2
     3    19    21   am
     4    21    12    1
     5    12    13   ar
     6    13    14   ar
     7    14    15   ar
     8    15    11    1
     9    11     7    1
    10     7     8    2
    11     7     9   am
    12     9    10    1
    13     9     1    1
    14     1     2    1
    15     2     3    1
    16     3     4    1
    17     4    23    1
    18    23    24    1
    19    24    25   ar
    20    25    26   ar
    21    26    27   ar
    22    27    30    1
    23    30    31    1
    24    30    32    1
    25    30    33    1
    26    27    28   ar
    27    28    29   ar
    28     4     5    1
    29     5     6    1
    30    15    16   ar
    31    16    17   ar
    32    17    12   ar
    33     6     1    1
    34    29    24   ar
    35    21    22    1
@<TRIPOS>MOLECULE
*****
 33 35 0 0 0
SMALL
GASTEIGER

@<TRIPOS>ATOM
      1 C         142.4695  140.3536  168.2183 C.3     1  UNL1        0.0782
      2 C         142.8158  141.8125  168.2607 C.3     1  UNL1        0.0372
      3 C         143.4041  142.4791  167.0527 C.3     1  UNL1        0.0741
      4 N         143.6460  141.6869  165.8020 N.3     1  UNL1       -0.2689
      5 C         143.2997  140.2281  165.7596 C.3     1  UNL1        0.0741
      6 C         142.7114  139.5614  166.9678 C.3     1  UNL1        0.0372
      7 C         140.4470  139.9289  169.7928 C.2     1  UNL1        0.2301
      8 O         139.8588  139.2622  171.0009 O.2     1  UNL1       -0.2745
      9 N         141.8813  139.6870  169.4264 N.am    1  UNL1       -0.2790
     10 C         142.7274  138.7783  170.2682 C.3     1  UNL1        0.1148
     11 C         139.6009  140.8376  168.9510 C.3     1  UNL1        0.1116
     12 C         138.6694  139.7360  164.6885 C.ar    1  UNL1        0.0503
     13 C         138.2908  138.8065  165.8033 C.ar    1  UNL1        0.0144
     14 C         138.6013  139.1737  167.2241 C.ar    1  UNL1       -0.0025
     15 C         139.2904  140.4704  167.5302 C.ar    1  UNL1       -0.0130
     16 C         139.6690  141.3998  166.4155 C.ar    1  UNL1       -0.0025
     17 C         139.3585  141.0327  164.9946 C.ar    1  UNL1        0.0144
     18 C         138.9295  138.0352  161.1123 C.3     1  UNL1        0.0949
     19 C         139.2400  138.4024  162.5331 C.2     1  UNL1        0.2266
     20 O         140.4316  137.8030  163.2194 O.2     1  UNL1       -0.2748
     21 N         138.3589  139.3688  163.2677 N.am    1  UNL1       -0.2839
     22 H         137.5768  139.7622  162.8173 H       1  UNL1        0.1549
     23 C         144.2342  142.3536  164.5940 C.3     1  UNL1        0.0991
     24 C         143.3472  143.1028  163.6443 C.ar    1  UNL1       -0.0062
     25 C         143.2685  142.6870  162.2052 C.ar    1  UNL1       -0.0030
     26 C         142.3815  143.4361  161.2555 C.ar    1  UNL1        0.0036
     27 C         141.5732  144.6011  161.7448 C.ar    1  UNL1        0.0714
     28 C         141.6519  145.0170  163.1839 C.ar    1  UNL1        0.0036
     29 C         142.5389  144.2678  164.1337 C.ar    1  UNL1       -0.0030
     30 C         140.6862  145.3503  160.7951 C.3     1  UNL1        0.4186
     31 F         139.7992  146.0995  159.8454 F       1  UNL1       -0.1659
     32 F         140.2703  146.2673  161.9070 F       1  UNL1       -0.1659
     33 F         141.1021  144.4333  159.6833 F       1  UNL1       -0.1659
@<TRIPOS>BOND
     1    18    19    1
     2    19    20    2
     3    19    21   am
     4    21    12    1
     5    12    13   ar
     6    13    14   ar
     7    14    15   ar
     8    15    11    1
     9    11     7    1
    10     7     8    2
    11     7     9   am
    12     9    10    1
    13     9     1    1
    14     1     2    1
    15     2     3    1
    16     3     4    1
    17     4    23    1
    18    23    24    1
    19    24    25   ar
    20    25    26   ar
    21    26    27   ar
    22    27    30    1
    23    30    31    1
    24    30    32    1
    25    30    33    1
    26    27    28   ar
    27    28    29   ar
    28     4     5    1
    29     5     6    1
    30    15    16   ar
    31    16    17   ar
    32    17    12   ar
    33     6     1    1
    34    29    24   ar
    35    21    22    1
@<TRIPOS>MOLECULE
*****
 33 35 0 0 0
SMALL
GASTEIGER

@<TRIPOS>ATOM
      1 C         140.2768  142.0393  168.5544 C.3     1  UNL1        0.0782
      2 C         139.7353  140.7437  169.0821 C.3     1  UNL1        0.0372
      3 C         139.0663  139.7760  168.1516 C.3     1  UNL1        0.0741
      4 N         138.9388  140.1038  166.6934 N.3     1  UNL1       -0.2689
      5 C         139.4803  141.3993  166.1657 C.3     1  UNL1        0.0741
      6 C         140.1493  142.3670  167.0963 C.3     1  UNL1        0.0372
      7 C         142.3826  142.8084  169.8675 C.2     1  UNL1        0.2301
      8 O         143.0516  143.7762  170.7981 O.2     1  UNL1       -0.2745
      9 N         140.9458  143.0070  169.4849 N.am    1  UNL1       -0.2790
     10 C         140.1781  144.1734  170.0329 C.3     1  UNL1        0.1148
     11 C         143.1503  141.6421  169.3196 C.3     1  UNL1        0.1116
     12 C         143.4900  141.0624  164.8700 C.ar    1  UNL1        0.0503
     13 C         143.7627  142.4080  165.4740 C.ar    1  UNL1        0.0144
     14 C         143.6494  142.6013  166.9572 C.ar    1  UNL1       -0.0025
     15 C         143.2635  141.4489  167.8364 C.ar    1  UNL1       -0.0130
     16 C         142.9909  140.1032  167.2324 C.ar    1  UNL1       -0.0025
     17 C         143.1042  139.9100  165.7492 C.ar    1  UNL1        0.0144
     18 C         142.5596  141.0179  161.0123 C.3     1  UNL1        0.0949
     19 C         142.4464  141.2112  162.4954 C.2     1  UNL1        0.2266
     20 O         141.1762  141.7464  163.0872 O.2     1  UNL1       -0.2748
     21 N         143.6033  140.8692  163.3868 N.am    1  UNL1       -0.2839
     22 H         144.4369  140.5179  162.9984 H       1  UNL1        0.1549
     23 C         138.2698  139.1360  165.7629 C.3     1  UNL1        0.0991
     24 C         138.8054  138.9368  164.3760 C.ar    1  UNL1       -0.0062
     25 C         139.9860  138.0397  164.1496 C.ar    1  UNL1       -0.0030
     26 C         140.5216  137.8404  162.7628 C.ar    1  UNL1        0.0036
     27 C         139.8765  138.5383  161.6022 C.ar    1  UNL1        0.0714
     28 C         138.6958  139.4354  161.8285 C.ar    1  UNL1        0.0036
     29 C         138.1602  139.6347  163.2154 C.ar    1  UNL1       -0.0030
     30 C         140.4121  138.3390  160.2153 C.3     1  UNL1        0.4186
     31 F         140.9477  138.1398  158.8285 F       1  UNL1       -0.1659
     32 F         139.1441  138.9016  159.6448 F       1  UNL1       -0.1659
     33 F         141.6802  137.7764  160.7859 F       1  UNL1       -0.1659
@<TRIPOS>BOND
     1    18    19    1
     2    19    20    2
     3    19    21   am
     4    21    12    1
     5    12    13   ar
     6    13    14   ar
     7    14    15   ar
     8    15    11    1
     9    11     7    1
    10     7     8    2
    11     7     9   am
    12     9    10    1
    13     9     1    1
    14     1     2    1
    15     2     3    1
    16     3     4    1
    17     4    23    1
    18    23    24    1
    19    24    25   ar
    20    25    26   ar
    21    26    27   ar
    22    27    30    1
    23    30    31    1
    24    30    32    1
    25    30    33    1
    26    27    28   ar
    27    28    29   ar
    28     4     5    1
    29     5     6    1
    30    15    16   ar
    31    16    17   ar
    32    17    12   ar
    33     6     1    1
    34    29    24   ar
    35    21    22    1
@<TRIPOS>MOLECULE
*****
 33 35 0 0 0
SMALL
GASTEIGER

@<TRIPOS>ATOM
      1 C         142.3479  141.1111  160.5323 C.3     1  UNL1        0.0782
      2 C         143.7939  140.8024  160.7845 C.3     1  UNL1        0.0372
      3 C         144.3739  140.9942  162.1544 C.3     1  UNL1        0.0741
      4 N         143.5078  141.4947  163.2723 N.3     1  UNL1       -0.2689
      5 C         142.0618  141.8034  163.0201 C.3     1  UNL1        0.0741
      6 C         141.4818  141.6116  161.6500 C.3     1  UNL1        0.0372
      7 C         141.4700  139.5375  158.6607 C.2     1  UNL1        0.2301
      8 O         140.8900  139.3457  157.2907 O.2     1  UNL1       -0.2745
      9 N         141.7679  140.9194  159.1623 N.am    1  UNL1       -0.2790
     10 C         141.4857  142.1095  158.2940 C.3     1  UNL1        0.1148
     11 C         141.7521  138.3473  159.5290 C.3     1  UNL1        0.1116
     12 C         139.5601  137.8346  163.4254 C.ar    1  UNL1        0.0503
     13 C         138.8004  138.1681  162.1758 C.ar    1  UNL1        0.0144
     14 C         139.5311  138.3390  160.8769 C.ar    1  UNL1       -0.0025
     15 C         141.0214  138.1764  160.8278 C.ar    1  UNL1       -0.0130
     16 C         141.7811  137.8430  162.0775 C.ar    1  UNL1       -0.0025
     17 C         141.0504  137.6721  163.3763 C.ar    1  UNL1        0.0144
     18 C         137.9320  138.6609  166.9491 C.3     1  UNL1        0.0949
     19 C         138.6627  138.8318  165.6503 C.2     1  UNL1        0.2266
     20 O         139.2268  140.1709  165.2777 O.2     1  UNL1       -0.2748
     21 N         138.8294  137.6637  164.7242 N.am    1  UNL1       -0.2839
     22 H         138.4592  136.7849  164.9688 H       1  UNL1        0.1549
     23 C         144.0878  141.6865  164.6422 C.3     1  UNL1        0.0991
     24 C         143.3191  141.2420  165.8511 C.ar    1  UNL1       -0.0062
     25 C         142.9252  139.8025  166.0019 C.ar    1  UNL1       -0.0030
     26 C         142.1565  139.3580  167.2108 C.ar    1  UNL1        0.0036
     27 C         141.7816  140.3529  168.2689 C.ar    1  UNL1        0.0714
     28 C         142.1755  141.7924  168.1181 C.ar    1  UNL1        0.0036
     29 C         142.9442  142.2370  166.9092 C.ar    1  UNL1       -0.0030
     30 C         141.0129  139.9084  169.4778 C.3     1  UNL1        0.4186
     31 F         140.2441  139.4638  170.6867 F       1  UNL1       -0.1659
     32 F         139.8681  140.7894  169.0738 F       1  UNL1       -0.1659
     33 F         142.1577  139.0273  169.8818 F       1  UNL1       -0.1659
@<TRIPOS>BOND
     1    18    19    1
     2    19    20    2
     3    19    21   am
     4    21    12    1
     5    12    13   ar
     6    13    14   ar
     7    14    15   ar
     8    15    11    1
     9    11     7    1
    10     7     8    2
    11     7     9   am
    12     9    10    1
    13     9     1    1
    14     1     2    1
    15     2     3    1
    16     3     4    1
    17     4    23    1
    18    23    24    1
    19    24    25   ar
    20    25    26   ar
    21    26    27   ar
    22    27    30    1
    23    30    31    1
    24    30    32    1
    25    30    33    1
    26    27    28   ar
    27    28    29   ar
    28     4     5    1
    29     5     6    1
    30    15    16   ar
    31    16    17   ar
    32    17    12   ar
    33     6     1    1
    34    29    24   ar
    35    21    22    1
@<TRIPOS>MOLECULE
*****
 33 35 0 0 0
SMALL
GASTEIGER

@<TRIPOS>ATOM
      1 C         141.4314  142.5849  167.5823 C.3     1  UNL1        0.0782
      2 C         142.9129  142.3820  167.4651 C.3     1  UNL1        0.0372
      3 C         143.5782  142.4704  166.1236 C.3     1  UNL1        0.0741
      4 N         142.7620  142.7617  164.8993 N.3     1  UNL1       -0.2689
      5 C         141.2804  142.9646  165.0165 C.3     1  UNL1        0.0741
      6 C         140.6151  142.8762  166.3581 C.3     1  UNL1        0.0372
      7 C         140.5089  141.1564  169.5465 C.2     1  UNL1        0.2301
      8 O         139.8436  141.0681  170.8881 O.2     1  UNL1       -0.2745
      9 N         140.7661  142.4965  168.9237 N.am    1  UNL1       -0.2790
     10 C         140.3579  143.7483  169.6424 C.3     1  UNL1        0.1148
     11 C         140.9171  139.9046  168.8279 C.3     1  UNL1        0.1116
     12 C         139.1043  138.9121  164.8306 C.ar    1  UNL1        0.0503
     13 C         140.5950  138.9237  164.9959 C.ar    1  UNL1        0.0144
     14 C         141.1993  139.2546  166.3284 C.ar    1  UNL1       -0.0025
     15 C         140.3128  139.5738  167.4955 C.ar    1  UNL1       -0.0130
     16 C         138.8220  139.5622  167.3301 C.ar    1  UNL1       -0.0025
     17 C         138.2178  139.2314  165.9977 C.ar    1  UNL1        0.0144
     18 C         137.5442  139.3499  161.2078 C.3     1  UNL1        0.0949
     19 C         138.1485  139.6808  162.5402 C.2     1  UNL1        0.2266
     20 O         138.4014  141.1111  162.9147 O.2     1  UNL1       -0.2748
     21 N         138.5000  138.5813  163.4982 N.am    1  UNL1       -0.2839
     22 H         138.3340  137.6425  163.2524 H       1  UNL1        0.1549
     23 C         143.4272  142.8501  163.5578 C.3     1  UNL1        0.0991
     24 C         143.3319  141.7028  162.5963 C.ar    1  UNL1       -0.0062
     25 C         143.4136  140.2926  163.1009 C.ar    1  UNL1       -0.0030
     26 C         143.3182  139.1452  162.1394 C.ar    1  UNL1        0.0036
     27 C         143.1413  139.4081  160.6733 C.ar    1  UNL1        0.0714
     28 C         143.0597  140.8183  160.1686 C.ar    1  UNL1        0.0036
     29 C         143.1550  141.9657  161.1301 C.ar    1  UNL1       -0.0030
     30 C         143.0460  138.2607  159.7118 C.3     1  UNL1        0.4186
     31 F         142.9507  137.1134  158.7502 F       1  UNL1       -0.1659
     32 F         142.7753  137.3264  160.8536 F       1  UNL1       -0.1659
     33 F         143.3167  139.1951  158.5700 F       1  UNL1       -0.1659
@<TRIPOS>BOND
     1    18    19    1
     2    19    20    2
     3    19    21   am
     4    21    12    1
     5    12    13   ar
     6    13    14   ar
     7    14    15   ar
     8    15    11    1
     9    11     7    1
    10     7     8    2
    11     7     9   am
    12     9    10    1
    13     9     1    1
    14     1     2    1
    15     2     3    1
    16     3     4    1
    17     4    23    1
    18    23    24    1
    19    24    25   ar
    20    25    26   ar
    21    26    27   ar
    22    27    30    1
    23    30    31    1
    24    30    32    1
    25    30    33    1
    26    27    28   ar
    27    28    29   ar
    28     4     5    1
    29     5     6    1
    30    15    16   ar
    31    16    17   ar
    32    17    12   ar
    33     6     1    1
    34    29    24   ar
    35    21    22    1
@<TRIPOS>MOLECULE
*****
 33 35 0 0 0
SMALL
GASTEIGER

@<TRIPOS>ATOM
      1 C         139.7850  141.5489  160.1435 C.3     1  UNL1        0.0782
      2 C         141.2208  141.9618  160.2773 C.3     1  UNL1        0.0372
      3 C         141.7216  142.5246  161.5744 C.3     1  UNL1        0.0741
      4 N         140.7865  142.6745  162.7377 N.3     1  UNL1       -0.2689
      5 C         139.3507  142.2616  162.6039 C.3     1  UNL1        0.0741
      6 C         138.8499  141.6988  161.3067 C.3     1  UNL1        0.0372
      7 C         139.6292  139.5795  158.4561 C.2     1  UNL1        0.2301
      8 O         139.1284  139.0168  157.1590 O.2     1  UNL1       -0.2745
      9 N         139.2842  140.9862  158.8464 N.am    1  UNL1       -0.2790
     10 C         138.4384  141.8301  157.9394 C.3     1  UNL1        0.1148
     11 C         140.4750  138.7356  159.3630 C.3     1  UNL1        0.1116
     12 C         139.1842  138.0090  163.6122 C.ar    1  UNL1        0.0503
     13 C         140.6114  138.3592  163.3114 C.ar    1  UNL1        0.0144
     14 C         141.0416  138.6015  161.8950 C.ar    1  UNL1       -0.0025
     15 C         140.0447  138.4934  160.7794 C.ar    1  UNL1       -0.0130
     16 C         138.6176  138.1431  161.0803 C.ar    1  UNL1       -0.0025
     17 C         138.1873  137.9009  162.4967 C.ar    1  UNL1        0.0144
     18 C         137.8276  138.6650  167.2836 C.3     1  UNL1        0.0949
     19 C         138.2579  138.9072  165.8672 C.2     1  UNL1        0.2266
     20 O         138.1921  140.2899  165.2894 O.2     1  UNL1       -0.2748
     21 N         138.7540  137.7668  165.0286 N.am    1  UNL1       -0.2839
     22 H         138.7972  136.8593  165.4079 H       1  UNL1        0.1549
     23 C         141.2873  143.2372  164.0348 C.3     1  UNL1        0.0991
     24 C         141.2087  142.4171  165.2883 C.ar    1  UNL1       -0.0062
     25 C         141.8411  141.0578  165.3360 C.ar    1  UNL1       -0.0030
     26 C         141.7626  140.2376  166.5895 C.ar    1  UNL1        0.0036
     27 C         141.0517  140.7768  167.7952 C.ar    1  UNL1        0.0714
     28 C         140.4193  142.1362  167.7476 C.ar    1  UNL1        0.0036
     29 C         140.4978  142.9563  166.4941 C.ar    1  UNL1       -0.0030
     30 C         140.9732  139.9566  169.0487 C.3     1  UNL1        0.4186
     31 F         140.8947  139.1365  170.3022 F       1  UNL1       -0.1659
     32 F         142.3554  139.4331  168.7927 F       1  UNL1       -0.1659
     33 F         139.5911  140.4801  169.3047 F       1  UNL1       -0.1659
@<TRIPOS>BOND
     1    18    19    1
     2    19    20    2
     3    19    21   am
     4    21    12    1
     5    12    13   ar
     6    13    14   ar
     7    14    15   ar
     8    15    11    1
     9    11     7    1
    10     7     8    2
    11     7     9   am
    12     9    10    1
    13     9     1    1
    14     1     2    1
    15     2     3    1
    16     3     4    1
    17     4    23    1
    18    23    24    1
    19    24    25   ar
    20    25    26   ar
    21    26    27   ar
    22    27    30    1
    23    30    31    1
    24    30    32    1
    25    30    33    1
    26    27    28   ar
    27    28    29   ar
    28     4     5    1
    29     5     6    1
    30    15    16   ar
    31    16    17   ar
    32    17    12   ar
    33     6     1    1
    34    29    24   ar
    35    21    22    1
