@<TRIPOS>MOLECULE
*****
 28 30 0 0 0
SMALL
GASTEIGER

@<TRIPOS>ATOM
      1 C         138.8337  144.0877  162.7827 C.ar    1  UNL1        0.2181
      2 N         138.0302  142.8620  162.4636 N.ar    1  UNL1       -0.1986
      3 C         138.2097  141.6146  163.2772 C.ar    1  UNL1        0.1388
      4 C         139.1929  141.5931  164.4099 C.ar    1  UNL1        0.0786
      5 S         139.5830  140.5176  165.3799 S.2     1  UNL1       -0.0825
      6 C         140.6276  141.0787  166.2986 C.ar    1  UNL1        0.0326
      7 C         140.8832  142.5009  165.8962 C.ar    1  UNL1        0.0263
      8 C         139.9964  142.8189  164.7289 C.ar    1  UNL1        0.0933
      9 N         139.8168  144.0662  163.9153 N.ar    1  UNL1       -0.2132
     10 C         141.2989  140.3461  167.4223 C.ar    1  UNL1        0.0254
     11 C         140.7302  140.4156  168.8085 C.ar    1  UNL1        0.0068
     12 C         141.4016  139.6830  169.9322 C.ar    1  UNL1        0.0577
     13 C         142.6416  138.8809  169.6696 C.ar    1  UNL1        0.2250
     14 N         143.2104  138.8115  168.2834 N.ar    1  UNL1       -0.2101
     15 C         142.5390  139.5441  167.1597 C.ar    1  UNL1        0.1025
     16 O         143.3130  138.1484  170.7933 O.3     1  UNL1       -0.4561
     17 C         143.8136  136.7500  170.5838 C.3     1  UNL1        0.2542
     18 C         139.7909  146.3020  161.8179 C.3     1  UNL1        0.1108
     19 N         138.6541  145.3351  161.9690 N.pl3   1  UNL1       -0.3013
     20 H         137.7902  145.5192  161.5343 H       1  UNL1        0.1497
     21 N         137.4061  140.3889  162.9581 N.pl3   1  UNL1       -0.3176
     22 H         136.5313  140.2483  163.3872 H       1  UNL1        0.1482
     23 C         137.9354  139.3774  161.9851 C.3     1  UNL1        0.0896
     24 C         138.6419  138.1528  162.4863 C.3     1  UNL1        0.0385
     25 C         140.0683  137.8982  162.0982 C.3     1  UNL1        0.0739
     26 N         141.1280  137.8041  163.1557 N.3     1  UNL1       -0.2703
     27 C         142.4592  138.4621  162.9440 C.3     1  UNL1        0.0897
     28 C         140.8564  137.0520  164.4248 C.3     1  UNL1        0.0897
@<TRIPOS>BOND
     1    18    19    1
     2    19     1    1
     3     1     2   ar
     4     2     3   ar
     5     3    21    1
     6    21    23    1
     7    23    24    1
     8    24    25    1
     9    25    26    1
    10    26    27    1
    11    26    28    1
    12     3     4   ar
    13     4     5   ar
    14     5     6   ar
    15     6    10    1
    16    10    11   ar
    17    11    12   ar
    18    12    13   ar
    19    13    16    1
    20    16    17    1
    21    13    14   ar
    22    14    15   ar
    23     6     7   ar
    24     7     8   ar
    25     8     9   ar
    26     9     1   ar
    27     8     4   ar
    28    15    10   ar
    29    19    20    1
    30    21    22    1
@<TRIPOS>MOLECULE
*****
 28 30 0 0 0
SMALL
GASTEIGER

@<TRIPOS>ATOM
      1 C         141.6512  144.7047  161.5336 C.ar    1  UNL1        0.2181
      2 N         143.0416  144.2425  161.8541 N.ar    1  UNL1       -0.1986
      3 C         143.2978  143.4400  163.0953 C.ar    1  UNL1        0.1388
      4 C         142.1634  143.0998  164.0159 C.ar    1  UNL1        0.0786
      5 S         142.1109  142.3295  165.3019 S.2     1  UNL1       -0.0825
      6 C         140.6879  142.3157  165.7761 C.ar    1  UNL1        0.0326
      7 C         139.8610  143.0774  164.7831 C.ar    1  UNL1        0.0263
      8 C         140.7729  143.5620  163.6952 C.ar    1  UNL1        0.0933
      9 N         140.5168  144.3645  162.4541 N.ar    1  UNL1       -0.2132
     10 C         140.1809  141.6559  167.0241 C.ar    1  UNL1        0.0254
     11 C         140.3583  142.3285  168.3531 C.ar    1  UNL1        0.0068
     12 C         139.8512  141.6686  169.6012 C.ar    1  UNL1        0.0577
     13 C         139.1667  140.3364  169.5202 C.ar    1  UNL1        0.2250
     14 N         138.9892  139.6639  168.1912 N.ar    1  UNL1       -0.2101
     15 C         139.4964  140.3237  166.9432 C.ar    1  UNL1        0.1025
     16 O         138.6596  139.6767  170.7683 O.3     1  UNL1       -0.4561
     17 C         137.2275  139.2393  170.8567 C.3     1  UNL1        0.2542
     18 C         141.6846  144.9165  158.9444 C.3     1  UNL1        0.1108
     19 N         141.3950  145.5072  160.2924 N.pl3   1  UNL1       -0.3013
     20 H         141.0368  146.4215  160.3625 H       1  UNL1        0.1497
     21 N         144.6884  142.9778  163.4159 N.pl3   1  UNL1       -0.3176
     22 H         145.3311  143.5995  163.8279 H       1  UNL1        0.1482
     23 C         145.0998  141.5685  163.1087 C.3     1  UNL1        0.0896
     24 C         145.2737  140.5784  164.2220 C.3     1  UNL1        0.0385
     25 C         144.8475  139.1529  164.0314 C.3     1  UNL1        0.0739
     26 N         143.3895  138.8114  163.9430 N.3     1  UNL1       -0.2703
     27 C         142.5883  138.6138  165.1956 C.3     1  UNL1        0.0897
     28 C         142.7329  138.6674  162.6021 C.3     1  UNL1        0.0897
@<TRIPOS>BOND
     1    18    19    1
     2    19     1    1
     3     1     2   ar
     4     2     3   ar
     5     3    21    1
     6    21    23    1
     7    23    24    1
     8    24    25    1
     9    25    26    1
    10    26    27    1
    11    26    28    1
    12     3     4   ar
    13     4     5   ar
    14     5     6   ar
    15     6    10    1
    16    10    11   ar
    17    11    12   ar
    18    12    13   ar
    19    13    16    1
    20    16    17    1
    21    13    14   ar
    22    14    15   ar
    23     6     7   ar
    24     7     8   ar
    25     8     9   ar
    26     9     1   ar
    27     8     4   ar
    28    15    10   ar
    29    19    20    1
    30    21    22    1
@<TRIPOS>MOLECULE
*****
 28 30 0 0 0
SMALL
GASTEIGER

@<TRIPOS>ATOM
      1 C         140.4821  144.8962  160.1799 C.ar    1  UNL1        0.2181
      2 N         141.9597  144.7208  160.3688 N.ar    1  UNL1       -0.1986
      3 C         142.4822  144.0242  161.5903 C.ar    1  UNL1        0.1388
      4 C         141.5270  143.5031  162.6227 C.ar    1  UNL1        0.0786
      5 S         141.7461  142.7803  163.9187 S.2     1  UNL1       -0.0825
      6 C         140.4038  142.5090  164.5307 C.ar    1  UNL1        0.0326
      7 C         139.3551  143.0641  163.6130 C.ar    1  UNL1        0.0263
      8 C         140.0493  143.6785  162.4338 C.ar    1  UNL1        0.0933
      9 N         139.5269  144.3750  161.2124 N.ar    1  UNL1       -0.2132
     10 C         140.1539  141.8059  165.8320 C.ar    1  UNL1        0.0254
     11 C         139.4776  140.4671  165.8434 C.ar    1  UNL1        0.0068
     12 C         139.2278  139.7642  167.1447 C.ar    1  UNL1        0.0577
     13 C         139.6543  140.3999  168.4346 C.ar    1  UNL1        0.2250
     14 N         140.3306  141.7387  168.4233 N.ar    1  UNL1       -0.2101
     15 C         140.5805  142.4417  167.1219 C.ar    1  UNL1        0.1025
     16 O         139.4044  139.6969  169.7359 O.3     1  UNL1       -0.4561
     17 C         140.2001  140.0662  170.9527 C.3     1  UNL1        0.2542
     18 C         140.8703  145.8509  157.7950 C.3     1  UNL1        0.1108
     19 N         139.9595  145.5927  158.9585 N.pl3   1  UNL1       -0.3013
     20 H         139.0187  145.8805  158.9205 H       1  UNL1        0.1497
     21 N         143.9600  143.8488  161.7791 N.pl3   1  UNL1       -0.3176
     22 H         144.4583  144.4657  162.3626 H       1  UNL1        0.1482
     23 C         144.6784  142.7337  161.0790 C.3     1  UNL1        0.0896
     24 C         144.2118  141.3181  161.2483 C.3     1  UNL1        0.0385
     25 C         144.6337  140.5282  162.4517 C.3     1  UNL1        0.0739
     26 N         143.9474  139.2351  162.7784 N.3     1  UNL1       -0.2703
     27 C         143.8368  138.1608  161.7375 C.3     1  UNL1        0.0897
     28 C         143.3717  139.0163  164.1462 C.3     1  UNL1        0.0897
@<TRIPOS>BOND
     1    18    19    1
     2    19     1    1
     3     1     2   ar
     4     2     3   ar
     5     3    21    1
     6    21    23    1
     7    23    24    1
     8    24    25    1
     9    25    26    1
    10    26    27    1
    11    26    28    1
    12     3     4   ar
    13     4     5   ar
    14     5     6   ar
    15     6    10    1
    16    10    11   ar
    17    11    12   ar
    18    12    13   ar
    19    13    16    1
    20    16    17    1
    21    13    14   ar
    22    14    15   ar
    23     6     7   ar
    24     7     8   ar
    25     8     9   ar
    26     9     1   ar
    27     8     4   ar
    28    15    10   ar
    29    19    20    1
    30    21    22    1
@<TRIPOS>MOLECULE
*****
 28 30 0 0 0
SMALL
GASTEIGER

@<TRIPOS>ATOM
      1 C         139.9993  140.5766  169.0325 C.ar    1  UNL1        0.2181
      2 N         139.2014  139.5146  168.3360 N.ar    1  UNL1       -0.1986
      3 C         138.8521  139.6690  166.8854 C.ar    1  UNL1        0.1388
      4 C         139.3008  140.8856  166.1314 C.ar    1  UNL1        0.0786
      5 S         139.1088  141.3101  164.7056 S.2     1  UNL1       -0.0825
      6 C         139.7881  142.6347  164.5210 C.ar    1  UNL1        0.0326
      7 C         140.3999  143.0287  165.8326 C.ar    1  UNL1        0.0263
      8 C         140.0988  141.9477  166.8279 C.ar    1  UNL1        0.0933
      9 N         140.4480  141.7932  168.2785 N.ar    1  UNL1       -0.2132
     10 C         139.8455  143.4263  163.2481 C.ar    1  UNL1        0.0254
     11 C         140.6342  144.7010  163.1926 C.ar    1  UNL1        0.0068
     12 C         140.6915  145.4925  161.9197 C.ar    1  UNL1        0.0577
     13 C         139.9603  145.0094  160.7024 C.ar    1  UNL1        0.2250
     14 N         139.1717  143.7347  160.7579 N.ar    1  UNL1       -0.2101
     15 C         139.1143  142.9431  162.0308 C.ar    1  UNL1        0.1025
     16 O         140.0177  145.8010  159.4296 O.3     1  UNL1       -0.4561
     17 C         141.1052  145.5372  158.4307 C.3     1  UNL1        0.2542
     18 C         141.4675  141.2271  171.0748 C.3     1  UNL1        0.1108
     19 N         140.3486  140.4222  170.4831 N.pl3   1  UNL1       -0.3013
     20 H         139.8436  139.7925  171.0468 H       1  UNL1        0.1497
     21 N         138.0541  138.6068  166.1889 N.pl3   1  UNL1       -0.3176
     22 H         137.0741  138.6839  166.1340 H       1  UNL1        0.1482
     23 C         138.7491  137.4272  165.5762 C.3     1  UNL1        0.0896
     24 C         139.5126  137.5890  164.2952 C.3     1  UNL1        0.0385
     25 C         140.9877  137.3188  164.2621 C.3     1  UNL1        0.0739
     26 N         141.9594  138.4238  164.5538 N.3     1  UNL1       -0.2703
     27 C         142.2680  138.7956  165.9738 C.3     1  UNL1        0.0897
     28 C         142.6223  139.1568  163.4255 C.3     1  UNL1        0.0897
@<TRIPOS>BOND
     1    18    19    1
     2    19     1    1
     3     1     2   ar
     4     2     3   ar
     5     3    21    1
     6    21    23    1
     7    23    24    1
     8    24    25    1
     9    25    26    1
    10    26    27    1
    11    26    28    1
    12     3     4   ar
    13     4     5   ar
    14     5     6   ar
    15     6    10    1
    16    10    11   ar
    17    11    12   ar
    18    12    13   ar
    19    13    16    1
    20    16    17    1
    21    13    14   ar
    22    14    15   ar
    23     6     7   ar
    24     7     8   ar
    25     8     9   ar
    26     9     1   ar
    27     8     4   ar
    28    15    10   ar
    29    19    20    1
    30    21    22    1
@<TRIPOS>MOLECULE
*****
 28 30 0 0 0
SMALL
GASTEIGER

@<TRIPOS>ATOM
      1 C         138.0175  140.7045  158.7741 C.ar    1  UNL1        0.2181
      2 N         139.0298  141.8072  158.8685 N.ar    1  UNL1       -0.1986
      3 C         139.6222  142.1697  160.1981 C.ar    1  UNL1        0.1388
      4 C         139.2022  141.4293  161.4332 C.ar    1  UNL1        0.0786
      5 S         139.6097  141.5626  162.8706 S.2     1  UNL1       -0.0825
      6 C         138.8492  140.5422  163.6645 C.ar    1  UNL1        0.0326
      7 C         137.9716  139.7783  162.7177 C.ar    1  UNL1        0.0263
      8 C         138.1898  140.3265  161.3387 C.ar    1  UNL1        0.0933
      9 N         137.5975  139.9641  160.0091 N.ar    1  UNL1       -0.2132
     10 C         138.9487  140.3240  165.1452 C.ar    1  UNL1        0.0254
     11 C         138.1581  139.2283  165.7966 C.ar    1  UNL1        0.0068
     12 C         138.2577  139.0101  167.2774 C.ar    1  UNL1        0.0577
     13 C         139.1477  139.8877  168.1066 C.ar    1  UNL1        0.2250
     14 N         139.9383  140.9834  167.4552 N.ar    1  UNL1       -0.2101
     15 C         139.8387  141.2015  165.9745 C.ar    1  UNL1        0.1025
     16 O         139.2472  139.6695  169.5874 O.3     1  UNL1       -0.4561
     17 C         140.1315  140.5517  170.4177 C.3     1  UNL1        0.2542
     18 C         136.7731  141.3973  156.6012 C.3     1  UNL1        0.1108
     19 N         137.4251  140.3420  157.4445 N.pl3   1  UNL1       -0.3013
     20 H         137.4642  139.4114  157.1254 H       1  UNL1        0.1497
     21 N         140.6347  143.2725  160.2925 N.pl3   1  UNL1       -0.3176
     22 H         141.5664  143.0660  160.5343 H       1  UNL1        0.1482
     23 C         140.2275  144.6899  160.0184 C.3     1  UNL1        0.0896
     24 C         140.1117  145.6689  161.1490 C.3     1  UNL1        0.0385
     25 C         139.2876  145.3278  162.3550 C.3     1  UNL1        0.0739
     26 N         139.9583  145.0500  163.6677 N.3     1  UNL1       -0.2703
     27 C         141.4554  145.0545  163.7608 C.3     1  UNL1        0.0897
     28 C         139.1318  144.7678  164.8872 C.3     1  UNL1        0.0897
@<TRIPOS>BOND
     1    18    19    1
     2    19     1    1
     3     1     2   ar
     4     2     3   ar
     5     3    21    1
     6    21    23    1
     7    23    24    1
     8    24    25    1
     9    25    26    1
    10    26    27    1
    11    26    28    1
    12     3     4   ar
    13     4     5   ar
    14     5     6   ar
    15     6    10    1
    16    10    11   ar
    17    11    12   ar
    18    12    13   ar
    19    13    16    1
    20    16    17    1
    21    13    14   ar
    22    14    15   ar
    23     6     7   ar
    24     7     8   ar
    25     8     9   ar
    26     9     1   ar
    27     8     4   ar
    28    15    10   ar
    29    19    20    1
    30    21    22    1
@<TRIPOS>MOLECULE
*****
 28 30 0 0 0
SMALL
GASTEIGER

@<TRIPOS>ATOM
      1 C         137.9353  140.7519  159.0073 C.ar    1  UNL1        0.2181
      2 N         138.3852  142.1706  159.1936 N.ar    1  UNL1       -0.1986
      3 C         138.7590  142.6657  160.5594 C.ar    1  UNL1        0.1388
      4 C         138.6827  141.7420  161.7388 C.ar    1  UNL1        0.0786
      5 S         138.9851  141.9451  163.1939 S.2     1  UNL1       -0.0825
      6 C         138.7220  140.6519  163.9068 C.ar    1  UNL1        0.0326
      7 C         138.2570  139.6495  162.8924 C.ar    1  UNL1        0.0263
      8 C         138.2327  140.3233  161.5524 C.ar    1  UNL1        0.0933
      9 N         137.8590  139.8282  160.1867 N.ar    1  UNL1       -0.2132
     10 C         138.8937  140.4044  165.3763 C.ar    1  UNL1        0.0254
     11 C         139.7893  141.2936  166.1870 C.ar    1  UNL1        0.0068
     12 C         139.9610  141.0460  167.6564 C.ar    1  UNL1        0.0577
     13 C         139.2371  139.9093  168.3152 C.ar    1  UNL1        0.2250
     14 N         138.3415  139.0202  167.5045 N.ar    1  UNL1       -0.2101
     15 C         138.1698  139.2677  166.0350 C.ar    1  UNL1        0.1025
     16 O         139.4088  139.6619  169.7846 O.3     1  UNL1       -0.4561
     17 C         140.4874  140.3756  170.5444 C.3     1  UNL1        0.2542
     18 C         138.6196  140.0766  156.5937 C.3     1  UNL1        0.1108
     19 N         137.5615  140.2568  157.6415 N.pl3   1  UNL1       -0.3013
     20 H         136.6218  140.0501  157.4329 H       1  UNL1        0.1497
     21 N         139.2090  144.0845  160.7457 N.pl3   1  UNL1       -0.3176
     22 H         138.6780  144.7005  161.3005 H       1  UNL1        0.1482
     23 C         140.4679  144.5646  160.0866 C.3     1  UNL1        0.0896
     24 C         141.8020  144.2337  160.6871 C.3     1  UNL1        0.0385
     25 C         141.9839  144.2685  162.1756 C.3     1  UNL1        0.0739
     26 N         143.3642  144.2968  162.7622 N.3     1  UNL1       -0.2703
     27 C         144.4629  143.4921  162.1335 C.3     1  UNL1        0.0897
     28 C         143.6457  145.1298  163.9774 C.3     1  UNL1        0.0897
@<TRIPOS>BOND
     1    18    19    1
     2    19     1    1
     3     1     2   ar
     4     2     3   ar
     5     3    21    1
     6    21    23    1
     7    23    24    1
     8    24    25    1
     9    25    26    1
    10    26    27    1
    11    26    28    1
    12     3     4   ar
    13     4     5   ar
    14     5     6   ar
    15     6    10    1
    16    10    11   ar
    17    11    12   ar
    18    12    13   ar
    19    13    16    1
    20    16    17    1
    21    13    14   ar
    22    14    15   ar
    23     6     7   ar
    24     7     8   ar
    25     8     9   ar
    26     9     1   ar
    27     8     4   ar
    28    15    10   ar
    29    19    20    1
    30    21    22    1
@<TRIPOS>MOLECULE
*****
 28 30 0 0 0
SMALL
GASTEIGER

@<TRIPOS>ATOM
      1 C         141.2655  144.9493  160.0289 C.ar    1  UNL1        0.2181
      2 N         139.9120  144.3030  160.0290 N.ar    1  UNL1       -0.1986
      3 C         139.4157  143.6017  161.2587 C.ar    1  UNL1        0.1388
      4 C         140.2731  143.5468  162.4882 C.ar    1  UNL1        0.0786
      5 S         140.0531  142.9318  163.8385 S.2     1  UNL1       -0.0825
      6 C         141.2708  143.1981  164.6730 C.ar    1  UNL1        0.0326
      7 C         142.2434  143.9776  163.8384 C.ar    1  UNL1        0.0263
      8 C         141.6268  144.1931  162.4881 C.ar    1  UNL1        0.0933
      9 N         142.1230  144.8943  161.2585 N.ar    1  UNL1       -0.2132
     10 C         141.4794  142.7615  166.0928 C.ar    1  UNL1        0.0254
     11 C         142.8275  142.2779  166.5384 C.ar    1  UNL1        0.0068
     12 C         143.0360  141.8413  167.9583 C.ar    1  UNL1        0.0577
     13 C         141.8964  141.8883  168.9325 C.ar    1  UNL1        0.2250
     14 N         140.5483  142.3720  168.4869 N.ar    1  UNL1       -0.2101
     15 C         140.3398  142.8086  167.0670 C.ar    1  UNL1        0.1025
     16 O         142.1050  141.4517  170.3524 O.3     1  UNL1       -0.4561
     17 C         142.8904  140.2083  170.6470 C.3     1  UNL1        0.2542
     18 C         140.8274  145.9089  157.6547 C.3     1  UNL1        0.1108
     19 N         141.7618  145.6506  158.7993 N.pl3   1  UNL1       -0.3013
     20 H         142.7008  145.9413  158.7435 H       1  UNL1        0.1497
     21 N         138.0620  142.9554  161.2587 N.pl3   1  UNL1       -0.3176
     22 H         137.2526  143.5083  161.3496 H       1  UNL1        0.1482
     23 C         137.9417  141.4667  161.1201 C.3     1  UNL1        0.0896
     24 C         137.6070  140.6268  162.3170 C.3     1  UNL1        0.0385
     25 C         138.5312  139.5244  162.7419 C.3     1  UNL1        0.0739
     26 N         138.5837  139.1022  164.1803 N.3     1  UNL1       -0.2703
     27 C         139.0233  137.7136  164.5388 C.3     1  UNL1        0.0897
     28 C         138.1965  140.0686  165.2602 C.3     1  UNL1        0.0897
@<TRIPOS>BOND
     1    18    19    1
     2    19     1    1
     3     1     2   ar
     4     2     3   ar
     5     3    21    1
     6    21    23    1
     7    23    24    1
     8    24    25    1
     9    25    26    1
    10    26    27    1
    11    26    28    1
    12     3     4   ar
    13     4     5   ar
    14     5     6   ar
    15     6    10    1
    16    10    11   ar
    17    11    12   ar
    18    12    13   ar
    19    13    16    1
    20    16    17    1
    21    13    14   ar
    22    14    15   ar
    23     6     7   ar
    24     7     8   ar
    25     8     9   ar
    26     9     1   ar
    27     8     4   ar
    28    15    10   ar
    29    19    20    1
    30    21    22    1
@<TRIPOS>MOLECULE
*****
 28 30 0 0 0
SMALL
GASTEIGER

@<TRIPOS>ATOM
      1 C         143.3311  143.1630  159.6197 C.ar    1  UNL1        0.2181
      2 N         142.4620  144.3052  160.0553 N.ar    1  UNL1       -0.1986
      3 C         142.0224  144.4103  161.4856 C.ar    1  UNL1        0.1388
      4 C         142.4520  143.3729  162.4803 C.ar    1  UNL1        0.0786
      5 S         142.1780  143.2140  163.9464 S.2     1  UNL1       -0.0825
      6 C         142.8777  141.9735  164.4169 C.ar    1  UNL1        0.0326
      7 C         143.5843  141.3657  163.2416 C.ar    1  UNL1        0.0263
      8 C         143.3212  142.2307  162.0446 C.ar    1  UNL1        0.0933
      9 N         143.7608  142.1257  160.6143 N.ar    1  UNL1       -0.2132
     10 C         142.8720  141.4351  165.8170 C.ar    1  UNL1        0.0254
     11 C         142.6544  139.9705  166.0565 C.ar    1  UNL1        0.0068
     12 C         142.6487  139.4322  167.4566 C.ar    1  UNL1        0.0577
     13 C         142.8605  140.3586  168.6172 C.ar    1  UNL1        0.2250
     14 N         143.0781  141.8232  168.3777 N.ar    1  UNL1       -0.2101
     15 C         143.0839  142.3615  166.9776 C.ar    1  UNL1        0.1025
     16 O         142.8548  139.8203  170.0173 O.3     1  UNL1       -0.4561
     17 C         142.0828  140.5292  171.0902 C.3     1  UNL1        0.2542
     18 C         145.0391  142.3346  157.8458 C.3     1  UNL1        0.1108
     19 N         143.7708  143.0580  158.1893 N.pl3   1  UNL1       -0.3013
     20 H         143.2269  143.4639  157.4761 H       1  UNL1        0.1497
     21 N         141.1532  145.5526  161.9212 N.pl3   1  UNL1       -0.3176
     22 H         141.5623  146.4009  162.2079 H       1  UNL1        0.1482
     23 C         139.6608  145.4024  161.9198 C.3     1  UNL1        0.0896
     24 C         138.9390  145.0743  163.1931 C.3     1  UNL1        0.0385
     25 C         137.7380  144.1760  163.1643 C.3     1  UNL1        0.0739
     26 N         137.9128  142.6949  163.0040 N.3     1  UNL1       -0.2703
     27 C         138.0019  142.0943  161.6325 C.3     1  UNL1        0.0897
     28 C         137.9984  141.8144  164.2154 C.3     1  UNL1        0.0897
@<TRIPOS>BOND
     1    18    19    1
     2    19     1    1
     3     1     2   ar
     4     2     3   ar
     5     3    21    1
     6    21    23    1
     7    23    24    1
     8    24    25    1
     9    25    26    1
    10    26    27    1
    11    26    28    1
    12     3     4   ar
    13     4     5   ar
    14     5     6   ar
    15     6    10    1
    16    10    11   ar
    17    11    12   ar
    18    12    13   ar
    19    13    16    1
    20    16    17    1
    21    13    14   ar
    22    14    15   ar
    23     6     7   ar
    24     7     8   ar
    25     8     9   ar
    26     9     1   ar
    27     8     4   ar
    28    15    10   ar
    29    19    20    1
    30    21    22    1
@<TRIPOS>MOLECULE
*****
 28 30 0 0 0
SMALL
GASTEIGER

@<TRIPOS>ATOM
      1 C         139.9226  140.8153  168.9061 C.ar    1  UNL1        0.2181
      2 N         139.2927  139.6767  168.1602 N.ar    1  UNL1       -0.1986
      3 C         139.0683  139.7819  166.6807 C.ar    1  UNL1        0.1388
      4 C         139.4738  141.0260  165.9474 C.ar    1  UNL1        0.0786
      5 S         139.3786  141.4150  164.5018 S.2     1  UNL1       -0.0825
      6 C         139.9498  142.7942  164.3544 C.ar    1  UNL1        0.0326
      7 C         140.3979  143.2575  165.7089 C.ar    1  UNL1        0.0263
      8 C         140.1038  142.1647  166.6934 C.ar    1  UNL1        0.0933
      9 N         140.3282  142.0594  168.1727 N.ar    1  UNL1       -0.2132
     10 C         140.0544  143.5732  163.0769 C.ar    1  UNL1        0.0254
     11 C         140.9553  143.0937  161.9777 C.ar    1  UNL1        0.0068
     12 C         141.0599  143.8729  160.7001 C.ar    1  UNL1        0.0577
     13 C         140.2635  145.1315  160.5218 C.ar    1  UNL1        0.2250
     14 N         139.3626  145.6110  161.6211 N.ar    1  UNL1       -0.2101
     15 C         139.2581  144.8318  162.8986 C.ar    1  UNL1        0.1025
     16 O         140.3682  145.9106  159.2443 O.3     1  UNL1       -0.4561
     17 C         141.4455  145.5842  158.2529 C.3     1  UNL1        0.2542
     18 C         141.3716  141.3172  171.0034 C.3     1  UNL1        0.1108
     19 N         140.1470  140.7100  170.3855 N.pl3   1  UNL1       -0.3013
     20 H         139.4906  140.2425  170.9510 H       1  UNL1        0.1497
     21 N         138.4383  138.6432  165.9348 N.pl3   1  UNL1       -0.3176
     22 H         137.4633  138.5115  165.9694 H       1  UNL1        0.1482
     23 C         139.2939  137.7050  165.1362 C.3     1  UNL1        0.0896
     24 C         138.8502  137.2609  163.7739 C.3     1  UNL1        0.0385
     25 C         138.6185  138.2748  162.6931 C.3     1  UNL1        0.0739
     26 N         139.5836  138.3866  161.5501 N.3     1  UNL1       -0.2703
     27 C         141.0137  137.9728  161.7329 C.3     1  UNL1        0.0897
     28 C         139.1184  138.9122  160.2245 C.3     1  UNL1        0.0897
@<TRIPOS>BOND
     1    18    19    1
     2    19     1    1
     3     1     2   ar
     4     2     3   ar
     5     3    21    1
     6    21    23    1
     7    23    24    1
     8    24    25    1
     9    25    26    1
    10    26    27    1
    11    26    28    1
    12     3     4   ar
    13     4     5   ar
    14     5     6   ar
    15     6    10    1
    16    10    11   ar
    17    11    12   ar
    18    12    13   ar
    19    13    16    1
    20    16    17    1
    21    13    14   ar
    22    14    15   ar
    23     6     7   ar
    24     7     8   ar
    25     8     9   ar
    26     9     1   ar
    27     8     4   ar
    28    15    10   ar
    29    19    20    1
    30    21    22    1
