@<TRIPOS>MOLECULE
*****
 28 31 0 0 0
SMALL
GASTEIGER

@<TRIPOS>ATOM
      1 N         140.0420  141.2870  167.9018 N.3     1  UNL1       -0.2713
      2 C         139.3218  140.1154  168.5006 C.3     1  UNL1        0.0614
      3 C         139.1761  140.3637  169.9727 C.3     1  UNL1        0.0175
      4 C         139.8063  141.6889  170.2837 C.3     1  UNL1        0.0175
      5 C         140.3415  142.2595  169.0039 C.3     1  UNL1        0.0614
      6 C         140.7712  142.5800  167.5926 C.3     1  UNL1        0.0595
      7 C         140.4044  141.5171  166.5998 C.3     1  UNL1        0.1686
      8 C         139.6797  140.2848  167.0538 C.3     1  UNL1        0.0595
      9 C         140.3999  141.4564  166.4550 C.3     1  UNL1        0.0988
     10 C         138.1910  140.2007  164.8601 C.3     1  UNL1        0.0307
     11 C         138.4373  141.6775  164.7671 C.ar    1  UNL1       -0.0245
     12 C         137.5791  142.5263  163.8766 C.ar    1  UNL1       -0.0045
     13 C         137.8255  144.0031  163.7836 C.ar    1  UNL1       -0.0003
     14 C         138.9300  144.6309  164.5811 C.ar    1  UNL1       -0.0003
     15 C         139.7881  143.7820  165.4715 C.ar    1  UNL1       -0.0032
     16 C         139.5417  142.3053  165.5645 C.ar    1  UNL1       -0.0101
     17 O         140.7623  141.6866  165.1529 O.3     1  UNL1       -0.4791
     18 C         141.9931  141.0288  164.6028 C.ar    1  UNL1        0.1385
     19 C         143.3509  141.5316  164.9945 C.ar    1  UNL1        0.0369
     20 C         144.5816  140.8738  164.4444 C.ar    1  UNL1        0.0033
     21 C         144.4545  139.7133  163.5026 C.ar    1  UNL1        0.0047
     22 C         143.0966  139.2105  163.1109 C.ar    1  UNL1        0.0561
     23 C         141.8659  139.8683  163.6611 C.ar    1  UNL1        0.0414
     24 C         142.9695  138.0500  162.1692 C.2     1  UNL1        0.2428
     25 N         144.1751  137.5467  161.4321 N.am    1  UNL1       -0.3253
     26 O         141.6368  137.3927  161.9644 O.2     1  UNL1       -0.2704
     27 H         145.0498  137.9781  161.5664 H       1  UNL1        0.1453
     28 H         144.0917  136.7850  160.8139 H       1  UNL1        0.1453
@<TRIPOS>BOND
     1    10    11    1
     2    11    12   ar
     3    12    13   ar
     4    13    14   ar
     5    14    15   ar
     6    15    16   ar
     7    16     9    1
     8     9     1    1
     9     1     2    1
    10     2     3    1
    11     3     4    1
    12     5     4    1
    13     5     6    1
    14     6     7    1
    15     7    17    1
    16    17    18    1
    17    18    19   ar
    18    19    20   ar
    19    20    21   ar
    20    21    22   ar
    21    22    24    1
    22    24    25   am
    23    24    26    2
    24    22    23   ar
    25     7     8    1
    26    16    11   ar
    27     5     1    1
    28    23    18   ar
    29     8     2    1
    30    25    27    1
    31    25    28    1
@<TRIPOS>MOLECULE
*****
 28 31 0 0 0
SMALL
GASTEIGER

@<TRIPOS>ATOM
      1 N         139.2463  142.3684  165.1102 N.3     1  UNL1       -0.2713
      2 C         138.3007  141.5848  164.2490 C.3     1  UNL1        0.0614
      3 C         137.3842  142.5554  163.5649 C.3     1  UNL1        0.0175
      4 C         137.7633  143.9388  164.0034 C.3     1  UNL1        0.0175
      5 C         138.9142  143.8233  164.9584 C.3     1  UNL1        0.0614
      6 C         140.0443  143.4101  165.8701 C.3     1  UNL1        0.0595
      7 C         140.2594  141.9264  165.9213 C.3     1  UNL1        0.1686
      8 C         139.3876  141.0138  165.1107 C.3     1  UNL1        0.0595
      9 C         140.3332  141.7974  165.9720 C.3     1  UNL1        0.0988
     10 C         139.0231  139.4301  167.2678 C.3     1  UNL1        0.0307
     11 C         139.5101  140.5721  168.1098 C.ar    1  UNL1       -0.0245
     12 C         139.3419  140.5302  169.5998 C.ar    1  UNL1       -0.0045
     13 C         139.8288  141.6722  170.4418 C.ar    1  UNL1       -0.0003
     14 C         140.4839  142.8559  169.7938 C.ar    1  UNL1       -0.0003
     15 C         140.6520  142.8976  168.3039 C.ar    1  UNL1       -0.0032
     16 C         140.1651  141.7557  167.4619 C.ar    1  UNL1       -0.0101
     17 O         141.3464  141.3554  166.7831 O.3     1  UNL1       -0.4791
     18 C         142.4514  140.5526  166.1629 C.ar    1  UNL1        0.1385
     19 C         142.7579  139.1769  166.6760 C.ar    1  UNL1        0.0369
     20 C         143.8628  138.3741  166.0559 C.ar    1  UNL1        0.0033
     21 C         144.6612  138.9471  164.9227 C.ar    1  UNL1        0.0047
     22 C         144.3547  140.3228  164.4096 C.ar    1  UNL1        0.0561
     23 C         143.2497  141.1256  165.0297 C.ar    1  UNL1        0.0414
     24 C         145.1531  140.8958  163.2763 C.2     1  UNL1        0.2428
     25 N         146.2407  141.8911  163.5530 N.am    1  UNL1       -0.3253
     26 O         144.8639  140.4735  161.8663 O.2     1  UNL1       -0.2704
     27 H         146.4305  142.1682  164.4784 H       1  UNL1        0.1453
     28 H         146.7647  142.2671  162.8092 H       1  UNL1        0.1453
@<TRIPOS>BOND
     1    10    11    1
     2    11    12   ar
     3    12    13   ar
     4    13    14   ar
     5    14    15   ar
     6    15    16   ar
     7    16     9    1
     8     9     1    1
     9     1     2    1
    10     2     3    1
    11     3     4    1
    12     5     4    1
    13     5     6    1
    14     6     7    1
    15     7    17    1
    16    17    18    1
    17    18    19   ar
    18    19    20   ar
    19    20    21   ar
    20    21    22   ar
    21    22    24    1
    22    24    25   am
    23    24    26    2
    24    22    23   ar
    25     7     8    1
    26    16    11   ar
    27     5     1    1
    28    23    18   ar
    29     8     2    1
    30    25    27    1
    31    25    28    1
@<TRIPOS>MOLECULE
*****
 28 31 0 0 0
SMALL
GASTEIGER

@<TRIPOS>ATOM
      1 N         139.4135  142.4123  164.2159 N.3     1  UNL1       -0.2713
      2 C         137.9347  142.6626  164.1945 C.3     1  UNL1        0.0614
      3 C         137.6547  143.6968  163.1447 C.3     1  UNL1        0.0175
      4 C         138.9606  144.0856  162.5173 C.3     1  UNL1        0.0175
      5 C         140.0476  143.2918  163.1794 C.3     1  UNL1        0.0614
      6 C         140.9150  142.3751  164.0078 C.3     1  UNL1        0.0595
      7 C         140.1434  141.5578  165.0011 C.3     1  UNL1        0.1686
      8 C         138.6533  141.7015  165.0945 C.3     1  UNL1        0.0595
      9 C         140.1321  141.4512  165.1159 C.3     1  UNL1        0.0988
     10 C         138.3380  139.2254  166.0255 C.3     1  UNL1        0.0307
     11 C         139.4930  138.9330  165.1141 C.ar    1  UNL1       -0.0245
     12 C         139.7509  137.5277  164.6575 C.ar    1  UNL1       -0.0045
     13 C         140.9059  137.2352  163.7461 C.ar    1  UNL1       -0.0003
     14 C         141.8029  138.3482  163.2914 C.ar    1  UNL1       -0.0003
     15 C         141.5450  139.7534  163.7479 C.ar    1  UNL1       -0.0032
     16 C         140.3900  140.0459  164.6593 C.ar    1  UNL1       -0.0101
     17 O         140.8621  140.5967  165.9011 O.3     1  UNL1       -0.4791
     18 C         141.4440  141.0757  167.1981 C.ar    1  UNL1        0.1385
     19 C         142.7350  141.8392  167.2043 C.ar    1  UNL1        0.0369
     20 C         143.3169  142.3182  168.5011 C.ar    1  UNL1        0.0033
     21 C         142.6076  142.0337  169.7919 C.ar    1  UNL1        0.0047
     22 C         141.3165  141.2701  169.7857 C.ar    1  UNL1        0.0561
     23 C         140.7347  140.7911  168.4887 C.ar    1  UNL1        0.0414
     24 C         140.6073  140.9856  171.0764 C.2     1  UNL1        0.2428
     25 N         139.9801  139.6428  171.3074 N.am    1  UNL1       -0.3253
     26 O         140.5252  142.0440  172.1362 O.2     1  UNL1       -0.2704
     27 H         140.0339  138.9481  170.6118 H       1  UNL1        0.1453
     28 H         139.5146  139.4560  172.1545 H       1  UNL1        0.1453
@<TRIPOS>BOND
     1    10    11    1
     2    11    12   ar
     3    12    13   ar
     4    13    14   ar
     5    14    15   ar
     6    15    16   ar
     7    16     9    1
     8     9     1    1
     9     1     2    1
    10     2     3    1
    11     3     4    1
    12     5     4    1
    13     5     6    1
    14     6     7    1
    15     7    17    1
    16    17    18    1
    17    18    19   ar
    18    19    20   ar
    19    20    21   ar
    20    21    22   ar
    21    22    24    1
    22    24    25   am
    23    24    26    2
    24    22    23   ar
    25     7     8    1
    26    16    11   ar
    27     5     1    1
    28    23    18   ar
    29     8     2    1
    30    25    27    1
    31    25    28    1
@<TRIPOS>MOLECULE
*****
 28 31 0 0 0
SMALL
GASTEIGER

@<TRIPOS>ATOM
      1 N         141.1348  140.1256  167.9902 N.3     1  UNL1       -0.2713
      2 C         140.1797  140.0834  169.1461 C.3     1  UNL1        0.0614
      3 C         140.9548  139.7092  170.3746 C.3     1  UNL1        0.0175
      4 C         142.3890  139.5203  169.9780 C.3     1  UNL1        0.0175
      5 C         142.5003  139.7776  168.5044 C.3     1  UNL1        0.0614
      6 C         142.3148  140.0881  167.0387 C.3     1  UNL1        0.0595
      7 C         140.8982  140.4177  166.6718 C.3     1  UNL1        0.1686
      8 C         139.8306  140.4154  167.7255 C.3     1  UNL1        0.0595
      9 C         140.7857  140.4577  166.5697 C.3     1  UNL1        0.0988
     10 C         138.1130  139.2023  166.0401 C.3     1  UNL1        0.0307
     11 C         139.3236  138.7347  165.2878 C.ar    1  UNL1       -0.0245
     12 C         139.1977  137.6394  164.2708 C.ar    1  UNL1       -0.0045
     13 C         140.4084  137.1717  163.5185 C.ar    1  UNL1       -0.0003
     14 C         141.7447  137.7994  163.7834 C.ar    1  UNL1       -0.0003
     15 C         141.8705  138.8947  164.8004 C.ar    1  UNL1       -0.0032
     16 C         140.6599  139.3623  165.5526 C.ar    1  UNL1       -0.0101
     17 O         140.5491  140.7498  165.2512 O.3     1  UNL1       -0.4791
     18 C         140.5460  142.1784  164.7940 C.ar    1  UNL1        0.1385
     19 C         139.4904  143.1220  165.2890 C.ar    1  UNL1        0.0369
     20 C         139.4873  144.5506  164.8318 C.ar    1  UNL1        0.0033
     21 C         140.5399  145.0355  163.8794 C.ar    1  UNL1        0.0047
     22 C         141.5955  144.0918  163.3843 C.ar    1  UNL1        0.0561
     23 C         141.5986  142.6632  163.8416 C.ar    1  UNL1        0.0414
     24 C         142.6480  144.5768  162.4320 C.2     1  UNL1        0.2428
     25 N         143.8288  145.3452  162.9470 N.am    1  UNL1       -0.3253
     26 O         142.5197  144.2933  160.9645 O.2     1  UNL1       -0.2704
     27 H         143.9130  145.5312  163.9100 H       1  UNL1        0.1453
     28 H         144.5196  145.6635  162.3219 H       1  UNL1        0.1453
@<TRIPOS>BOND
     1    10    11    1
     2    11    12   ar
     3    12    13   ar
     4    13    14   ar
     5    14    15   ar
     6    15    16   ar
     7    16     9    1
     8     9     1    1
     9     1     2    1
    10     2     3    1
    11     3     4    1
    12     5     4    1
    13     5     6    1
    14     6     7    1
    15     7    17    1
    16    17    18    1
    17    18    19   ar
    18    19    20   ar
    19    20    21   ar
    20    21    22   ar
    21    22    24    1
    22    24    25   am
    23    24    26    2
    24    22    23   ar
    25     7     8    1
    26    16    11   ar
    27     5     1    1
    28    23    18   ar
    29     8     2    1
    30    25    27    1
    31    25    28    1
@<TRIPOS>MOLECULE
*****
 28 31 0 0 0
SMALL
GASTEIGER

@<TRIPOS>ATOM
      1 N         141.6275  142.1698  168.3199 N.3     1  UNL1       -0.2713
      2 C         142.9698  141.5322  168.5239 C.3     1  UNL1        0.0614
      3 C         143.5677  142.1011  169.7765 C.3     1  UNL1        0.0175
      4 C         142.5948  143.0903  170.3466 C.3     1  UNL1        0.0175
      5 C         141.3957  143.1328  169.4464 C.3     1  UNL1        0.0614
      6 C         140.3402  142.9688  168.3797 C.3     1  UNL1        0.0595
      7 C         140.7103  141.9738  167.3200 C.3     1  UNL1        0.1686
      8 C         142.0251  141.2555  167.3921 C.3     1  UNL1        0.0595
      9 C         140.6828  141.8931  167.1881 C.3     1  UNL1        0.0988
     10 C         142.7881  142.2911  165.0883 C.3     1  UNL1        0.0307
     11 C         141.5356  143.1162  165.0606 C.ar    1  UNL1       -0.0245
     12 C         141.3359  144.1402  163.9829 C.ar    1  UNL1       -0.0045
     13 C         140.0834  144.9653  163.9552 C.ar    1  UNL1       -0.0003
     14 C         139.0308  144.7662  165.0051 C.ar    1  UNL1       -0.0003
     15 C         139.2306  143.7422  166.0827 C.ar    1  UNL1       -0.0032
     16 C         140.4830  142.9172  166.1104 C.ar    1  UNL1       -0.0101
     17 O         139.7655  141.6971  166.1882 O.3     1  UNL1       -0.4791
     18 C         139.3355  140.2898  165.8973 C.ar    1  UNL1        0.1385
     19 C         138.5311  139.5273  166.9080 C.ar    1  UNL1        0.0369
     20 C         138.1010  138.1201  166.6171 C.ar    1  UNL1        0.0033
     21 C         138.4753  137.4753  165.3155 C.ar    1  UNL1        0.0047
     22 C         139.2796  138.2378  164.3048 C.ar    1  UNL1        0.0561
     23 C         139.7097  139.6451  164.5957 C.ar    1  UNL1        0.0414
     24 C         139.6539  137.5931  163.0031 C.2     1  UNL1        0.2428
     25 N         138.7012  137.6328  161.8452 N.am    1  UNL1       -0.3253
     26 O         140.9809  136.9086  162.8594 O.2     1  UNL1       -0.2704
     27 H         137.8303  138.0820  161.9395 H       1  UNL1        0.1453
     28 H         138.9468  137.2096  160.9909 H       1  UNL1        0.1453
@<TRIPOS>BOND
     1    10    11    1
     2    11    12   ar
     3    12    13   ar
     4    13    14   ar
     5    14    15   ar
     6    15    16   ar
     7    16     9    1
     8     9     1    1
     9     1     2    1
    10     2     3    1
    11     3     4    1
    12     5     4    1
    13     5     6    1
    14     6     7    1
    15     7    17    1
    16    17    18    1
    17    18    19   ar
    18    19    20   ar
    19    20    21   ar
    20    21    22   ar
    21    22    24    1
    22    24    25   am
    23    24    26    2
    24    22    23   ar
    25     7     8    1
    26    16    11   ar
    27     5     1    1
    28    23    18   ar
    29     8     2    1
    30    25    27    1
    31    25    28    1
@<TRIPOS>MOLECULE
*****
 28 31 0 0 0
SMALL
GASTEIGER

@<TRIPOS>ATOM
      1 N         140.0202  141.2466  167.9419 N.3     1  UNL1       -0.2713
      2 C         139.2902  140.1123  168.5981 C.3     1  UNL1        0.0614
      3 C         139.2216  140.3948  170.0697 C.3     1  UNL1        0.0175
      4 C         139.9091  141.7036  170.3229 C.3     1  UNL1        0.0175
      5 C         140.4027  142.2301  169.0079 C.3     1  UNL1        0.0614
      6 C         140.7766  142.5076  167.5718 C.3     1  UNL1        0.0595
      7 C         140.3289  141.4382  166.6200 C.3     1  UNL1        0.1686
      8 C         139.5858  140.2405  167.1331 C.3     1  UNL1        0.0595
      9 C         140.3157  141.3748  166.4769 C.3     1  UNL1        0.0988
     10 C         138.2471  140.1283  164.6972 C.3     1  UNL1        0.0307
     11 C         138.4168  141.6185  164.7206 C.ar    1  UNL1       -0.0245
     12 C         137.5521  142.4854  163.8541 C.ar    1  UNL1       -0.0045
     13 C         137.7218  143.9757  163.8775 C.ar    1  UNL1       -0.0003
     14 C         138.7561  144.5989  164.7673 C.ar    1  UNL1       -0.0003
     15 C         139.6207  143.7320  165.6338 C.ar    1  UNL1       -0.0032
     16 C         139.4510  142.2418  165.6104 C.ar    1  UNL1       -0.0101
     17 O         140.6245  141.5665  165.1549 O.3     1  UNL1       -0.4791
     18 C         142.0302  141.4060  164.6565 C.ar    1  UNL1        0.1385
     19 C         142.8612  140.2453  165.1170 C.ar    1  UNL1        0.0369
     20 C         144.2668  140.0848  164.6186 C.ar    1  UNL1        0.0033
     21 C         144.8414  141.0850  163.6598 C.ar    1  UNL1        0.0047
     22 C         144.0104  142.2457  163.1994 C.ar    1  UNL1        0.0561
     23 C         142.6047  142.4062  163.6978 C.ar    1  UNL1        0.0414
     24 C         144.5850  143.2460  162.2406 C.2     1  UNL1        0.2428
     25 N         145.3564  142.7787  161.0420 N.am    1  UNL1       -0.3253
     26 O         144.3882  144.7136  162.4803 O.2     1  UNL1       -0.2704
     27 H         145.4856  141.8155  160.8847 H       1  UNL1        0.1453
     28 H         145.7336  143.4352  160.4127 H       1  UNL1        0.1453
@<TRIPOS>BOND
     1    10    11    1
     2    11    12   ar
     3    12    13   ar
     4    13    14   ar
     5    14    15   ar
     6    15    16   ar
     7    16     9    1
     8     9     1    1
     9     1     2    1
    10     2     3    1
    11     3     4    1
    12     5     4    1
    13     5     6    1
    14     6     7    1
    15     7    17    1
    16    17    18    1
    17    18    19   ar
    18    19    20   ar
    19    20    21   ar
    20    21    22   ar
    21    22    24    1
    22    24    25   am
    23    24    26    2
    24    22    23   ar
    25     7     8    1
    26    16    11   ar
    27     5     1    1
    28    23    18   ar
    29     8     2    1
    30    25    27    1
    31    25    28    1
@<TRIPOS>MOLECULE
*****
 28 31 0 0 0
SMALL
GASTEIGER

@<TRIPOS>ATOM
      1 N         143.2666  141.6406  164.4188 N.3     1  UNL1       -0.2713
      2 C         143.7086  140.4094  163.6847 C.3     1  UNL1        0.0614
      3 C         145.1638  140.5634  163.3553 C.3     1  UNL1        0.0175
      4 C         145.6213  141.8898  163.8860 C.3     1  UNL1        0.0175
      5 C         144.4487  142.5555  164.5433 C.3     1  UNL1        0.0614
      6 C         143.1194  142.9757  165.1224 C.3     1  UNL1        0.0595
      7 C         142.0325  141.9615  164.9222 C.3     1  UNL1        0.1686
      8 C         142.3270  140.6784  164.2033 C.3     1  UNL1        0.0595
      9 C         141.8851  141.9095  164.9375 C.3     1  UNL1        0.0988
     10 C         139.8830  140.6088  163.1209 C.3     1  UNL1        0.0307
     11 C         139.9349  142.1039  163.2320 C.ar    1  UNL1       -0.0245
     12 C         138.9856  142.9485  162.4348 C.ar    1  UNL1       -0.0045
     13 C         139.0375  144.4435  162.5459 C.ar    1  UNL1       -0.0003
     14 C         140.0386  145.0938  163.4542 C.ar    1  UNL1       -0.0003
     15 C         140.9877  144.2492  164.2514 C.ar    1  UNL1       -0.0032
     16 C         140.9359  142.7542  164.1403 C.ar    1  UNL1       -0.0101
     17 O         140.6509  142.2305  165.4409 O.3     1  UNL1       -0.4791
     18 C         140.2463  141.7254  166.7941 C.ar    1  UNL1        0.1385
     19 C         139.6794  140.3444  166.9405 C.ar    1  UNL1        0.0369
     20 C         139.2748  139.8393  168.2936 C.ar    1  UNL1        0.0033
     21 C         139.4371  140.7151  169.5005 C.ar    1  UNL1        0.0047
     22 C         140.0040  142.0961  169.3541 C.ar    1  UNL1        0.0561
     23 C         140.4086  142.6013  168.0009 C.ar    1  UNL1        0.0414
     24 C         140.1663  142.9720  170.5610 C.2     1  UNL1        0.2428
     25 N         140.0972  144.4638  170.4199 N.am    1  UNL1       -0.3253
     26 O         140.3977  142.3561  171.9091 O.2     1  UNL1       -0.2704
     27 H         139.9453  144.8680  169.5351 H       1  UNL1        0.1453
     28 H         140.2037  145.0386  171.2120 H       1  UNL1        0.1453
@<TRIPOS>BOND
     1    10    11    1
     2    11    12   ar
     3    12    13   ar
     4    13    14   ar
     5    14    15   ar
     6    15    16   ar
     7    16     9    1
     8     9     1    1
     9     1     2    1
    10     2     3    1
    11     3     4    1
    12     5     4    1
    13     5     6    1
    14     6     7    1
    15     7    17    1
    16    17    18    1
    17    18    19   ar
    18    19    20   ar
    19    20    21   ar
    20    21    22   ar
    21    22    24    1
    22    24    25   am
    23    24    26    2
    24    22    23   ar
    25     7     8    1
    26    16    11   ar
    27     5     1    1
    28    23    18   ar
    29     8     2    1
    30    25    27    1
    31    25    28    1
@<TRIPOS>MOLECULE
*****
 28 31 0 0 0
SMALL
GASTEIGER

@<TRIPOS>ATOM
      1 N         141.1871  140.1501  167.7716 N.3     1  UNL1       -0.2713
      2 C         140.1528  140.2929  168.8485 C.3     1  UNL1        0.0614
      3 C         140.7650  139.8433  170.1419 C.3     1  UNL1        0.0175
      4 C         142.1778  139.4226  169.8644 C.3     1  UNL1        0.0175
      5 C         142.4387  139.6122  168.3994 C.3     1  UNL1        0.0614
      6 C         142.4150  139.9003  166.9177 C.3     1  UNL1        0.0595
      7 C         141.0991  140.4327  166.4330 C.3     1  UNL1        0.1686
      8 C         139.9680  140.6290  167.3983 C.3     1  UNL1        0.0595
      9 C         141.0023  140.4862  166.3214 C.3     1  UNL1        0.0988
     10 C         138.2124  139.5777  165.6963 C.3     1  UNL1        0.0307
     11 C         139.3815  138.9376  165.0082 C.ar    1  UNL1       -0.0245
     12 C         139.1556  137.8432  164.0076 C.ar    1  UNL1       -0.0045
     13 C         140.3247  137.2031  163.3195 C.ar    1  UNL1       -0.0003
     14 C         141.7197  137.6573  163.6321 C.ar    1  UNL1       -0.0003
     15 C         141.9455  138.7516  164.6327 C.ar    1  UNL1       -0.0032
     16 C         140.7765  139.3918  165.3208 C.ar    1  UNL1       -0.0101
     17 O         140.9144  140.7687  164.9827 O.3     1  UNL1       -0.4791
     18 C         141.0573  142.1876  164.5176 C.ar    1  UNL1        0.1385
     19 C         142.3310  142.9368  164.7756 C.ar    1  UNL1        0.0369
     20 C         142.4739  144.3556  164.3104 C.ar    1  UNL1        0.0033
     21 C         141.3432  145.0253  163.5873 C.ar    1  UNL1        0.0047
     22 C         140.0696  144.2762  163.3293 C.ar    1  UNL1        0.0561
     23 C         139.9266  142.8573  163.7945 C.ar    1  UNL1        0.0414
     24 C         138.9389  144.9459  162.6062 C.2     1  UNL1        0.2428
     25 N         137.5403  144.4242  162.7539 N.am    1  UNL1       -0.3253
     26 O         139.2067  146.1375  161.7352 O.2     1  UNL1       -0.2704
     27 H         137.3645  143.6421  163.3255 H       1  UNL1        0.1453
     28 H         136.7982  144.8638  162.2793 H       1  UNL1        0.1453
@<TRIPOS>BOND
     1    10    11    1
     2    11    12   ar
     3    12    13   ar
     4    13    14   ar
     5    14    15   ar
     6    15    16   ar
     7    16     9    1
     8     9     1    1
     9     1     2    1
    10     2     3    1
    11     3     4    1
    12     5     4    1
    13     5     6    1
    14     6     7    1
    15     7    17    1
    16    17    18    1
    17    18    19   ar
    18    19    20   ar
    19    20    21   ar
    20    21    22   ar
    21    22    24    1
    22    24    25   am
    23    24    26    2
    24    22    23   ar
    25     7     8    1
    26    16    11   ar
    27     5     1    1
    28    23    18   ar
    29     8     2    1
    30    25    27    1
    31    25    28    1
@<TRIPOS>MOLECULE
*****
 28 31 0 0 0
SMALL
GASTEIGER

@<TRIPOS>ATOM
      1 N         141.4292  140.7345  168.6092 N.3     1  UNL1       -0.2713
      2 C         142.7911  140.2582  169.0197 C.3     1  UNL1        0.0614
      3 C         142.8589  140.2832  170.5179 C.3     1  UNL1        0.0175
      4 C         141.5389  140.7750  171.0335 C.3     1  UNL1        0.0175
      5 C         140.6553  141.0539  169.8539 C.3     1  UNL1        0.0614
      6 C         140.0046  141.2434  168.5048 C.3     1  UNL1        0.0595
      7 C         140.8977  140.8842  167.3544 C.3     1  UNL1        0.1686
      8 C         142.2909  140.3916  167.6118 C.3     1  UNL1        0.0595
      9 C         140.9290  140.8679  167.2014 C.3     1  UNL1        0.0988
     10 C         142.3039  139.1886  165.1303 C.3     1  UNL1        0.0307
     11 C         140.8861  138.8893  165.5183 C.ar    1  UNL1       -0.0245
     12 C         140.1558  137.7504  164.8706 C.ar    1  UNL1       -0.0045
     13 C         138.7380  137.4511  165.2586 C.ar    1  UNL1       -0.0003
     14 C         138.0507  138.2908  166.2941 C.ar    1  UNL1       -0.0003
     15 C         138.7810  139.4297  166.9417 C.ar    1  UNL1       -0.0032
     16 C         140.1987  139.7290  166.5538 C.ar    1  UNL1       -0.0101
     17 O         140.3975  141.0177  165.9465 O.3     1  UNL1       -0.4791
     18 C         140.3538  142.3661  165.2908 C.ar    1  UNL1        0.1385
     19 C         139.0742  143.1486  165.2696 C.ar    1  UNL1        0.0369
     20 C         139.0305  144.4969  164.6139 C.ar    1  UNL1        0.0033
     21 C         140.2663  145.0628  163.9794 C.ar    1  UNL1        0.0047
     22 C         141.5458  144.2803  164.0006 C.ar    1  UNL1        0.0561
     23 C         141.5895  142.9319  164.6563 C.ar    1  UNL1        0.0414
     24 C         142.7816  144.8462  163.3661 C.2     1  UNL1        0.2428
     25 N         142.8985  144.9034  161.8718 N.am    1  UNL1       -0.3253
     26 O         143.9005  145.3549  164.2260 O.2     1  UNL1       -0.2704
     27 H         142.1642  144.5695  161.3074 H       1  UNL1        0.1453
     28 H         143.7096  145.2748  161.4553 H       1  UNL1        0.1453
@<TRIPOS>BOND
     1    10    11    1
     2    11    12   ar
     3    12    13   ar
     4    13    14   ar
     5    14    15   ar
     6    15    16   ar
     7    16     9    1
     8     9     1    1
     9     1     2    1
    10     2     3    1
    11     3     4    1
    12     5     4    1
    13     5     6    1
    14     6     7    1
    15     7    17    1
    16    17    18    1
    17    18    19   ar
    18    19    20   ar
    19    20    21   ar
    20    21    22   ar
    21    22    24    1
    22    24    25   am
    23    24    26    2
    24    22    23   ar
    25     7     8    1
    26    16    11   ar
    27     5     1    1
    28    23    18   ar
    29     8     2    1
    30    25    27    1
    31    25    28    1
