@<TRIPOS>MOLECULE
*****
 32 35 0 0 0
SMALL
GASTEIGER

@<TRIPOS>ATOM
      1 C         141.8269  139.7853  165.3977 C.2     1  UNL1        0.2257
      2 O         143.0606  139.4677  166.1894 O.2     1  UNL1       -0.2749
      3 N         141.9333  140.5792  164.1295 N.am    1  UNL1       -0.2760
      4 C         140.6995  140.8969  163.3377 C.3     1  UNL1        0.1149
      5 C         140.8059  141.6908  162.0695 C.3     1  UNL1        0.1141
      6 N         142.1462  142.1671  161.5930 N.pl3   1  UNL1       -0.2847
      7 C         143.3800  141.8494  162.3848 C.3     1  UNL1        0.1141
      8 C         143.2735  141.0555  163.6530 C.3     1  UNL1        0.1149
      9 C         139.8611  139.9244  167.0907 C.3     1  UNL1        0.0851
     10 C         138.5209  139.4481  167.5671 C.3     1  UNL1        0.0096
     11 C         137.8062  138.3566  166.8270 C.3     1  UNL1        0.0005
     12 C         138.4318  137.7413  165.6104 C.3     1  UNL1        0.0005
     13 C         139.7720  138.2175  165.1340 C.3     1  UNL1        0.0096
     14 C         140.4866  139.3091  165.8741 C.3     1  UNL1        0.0853
     15 N         141.5510  140.6715  168.9171 N.am    1  UNL1       -0.2959
     16 C         140.5758  141.0159  167.8308 C.2     1  UNL1        0.2231
     17 O         140.3151  142.4520  167.4846 O.2     1  UNL1       -0.2751
     18 H         141.7221  139.7290  169.1444 H       1  UNL1        0.1502
     19 C         142.2657  141.7631  169.6573 C.3     1  UNL1        0.1364
     20 C         143.2977  142.8002  169.9879 C.3     1  UNL1        0.0353
     21 C         143.4277  141.9854  168.7352 C.3     1  UNL1        0.0353
     22 N         140.4380  142.0764  172.0156 N.1     1  UNL1       -0.1943
     23 C         141.3519  141.9197  170.8364 C.1     1  UNL1        0.0896
     24 C         142.2527  142.9610  160.3248 C.ar    1  UNL1        0.1631
     25 N         141.3078  144.0359  159.8756 N.ar    1  UNL1       -0.2201
     26 C         141.7938  144.5586  158.5563 C.ar    1  UNL1        0.1610
     27 C         143.0391  143.8068  158.1901 C.ar    1  UNL1        0.0612
     28 S         143.3226  142.8194  159.2831 S.2     1  UNL1       -0.0510
     29 C         141.1480  145.6428  157.7455 C.3     1  UNL1        0.4354
     30 F         140.5021  146.7270  156.9348 F       1  UNL1       -0.1644
     31 F         139.8241  144.9489  157.8722 F       1  UNL1       -0.1644
     32 F         142.4718  146.3367  157.6188 F       1  UNL1       -0.1644
@<TRIPOS>BOND
     1    22    23    3
     2    23    19    1
     3    19    15    1
     4    15    16   am
     5    16    17    2
     6     9    16    1
     7     9    10    1
     8    10    11    1
     9    11    12    1
    10    12    13    1
    11    13    14    1
    12    14     1    1
    13     1     2    2
    14     1     3   am
    15     3     4    1
    16     4     5    1
    17     5     6    1
    18     6    24    1
    19    24    25   ar
    20    25    26   ar
    21    26    29    1
    22    29    30    1
    23    29    31    1
    24    29    32    1
    25    26    27   ar
    26    27    28   ar
    27     6     7    1
    28     7     8    1
    29    19    20    1
    30    20    21    1
    31    21    19    1
    32    14     9    1
    33     8     3    1
    34    28    24   ar
    35    15    18    1
@<TRIPOS>MOLECULE
*****
 32 35 0 0 0
SMALL
GASTEIGER

@<TRIPOS>ATOM
      1 C         139.9973  138.1020  163.0442 C.2     1  UNL1        0.2257
      2 O         140.9017  136.9194  162.8619 O.2     1  UNL1       -0.2749
      3 N         139.4251  138.8003  161.8463 N.am    1  UNL1       -0.2760
      4 C         138.5206  139.9830  162.0286 C.3     1  UNL1        0.1149
      5 C         137.9483  140.6813  160.8307 C.3     1  UNL1        0.1141
      6 N         138.2806  140.1969  159.4505 N.pl3   1  UNL1       -0.2847
      7 C         139.1851  139.0142  159.2682 C.3     1  UNL1        0.1141
      8 C         139.7573  138.3159  160.4661 C.3     1  UNL1        0.1149
      9 C         140.4736  139.6849  165.0486 C.3     1  UNL1        0.0851
     10 C         140.1414  140.1693  166.4288 C.3     1  UNL1        0.0096
     11 C         139.0006  139.5553  167.1848 C.3     1  UNL1        0.0005
     12 C         138.1921  138.4568  166.5606 C.3     1  UNL1        0.0005
     13 C         138.5243  137.9724  165.1804 C.3     1  UNL1        0.0096
     14 C         139.6650  138.5864  164.4244 C.3     1  UNL1        0.0853
     15 N         142.9855  139.6977  164.3850 N.am    1  UNL1       -0.2959
     16 C         141.6144  140.2990  164.2925 C.2     1  UNL1        0.2231
     17 O         141.3840  141.5143  163.4440 O.2     1  UNL1       -0.2751
     18 H         143.1366  138.9001  164.9419 H       1  UNL1        0.1502
     19 C         144.1263  140.3118  163.6289 C.3     1  UNL1        0.1364
     20 C         145.2764  141.2182  163.3039 C.3     1  UNL1        0.0353
     21 C         144.5494  141.3668  164.6076 C.3     1  UNL1        0.0353
     22 N         144.0721  138.6280  161.1466 N.1     1  UNL1       -0.1943
     23 C         144.0992  139.4700  162.3877 C.1     1  UNL1        0.0896
     24 C         137.7084  140.8952  158.2526 C.ar    1  UNL1        0.1631
     25 N         136.5714  140.4049  157.4059 N.ar    1  UNL1       -0.2201
     26 C         136.3330  141.4130  156.3211 C.ar    1  UNL1        0.1610
     27 C         137.3226  142.5264  156.4973 C.ar    1  UNL1        0.0612
     28 S         138.1726  142.2063  157.6911 S.2     1  UNL1       -0.0510
     29 C         135.2884  141.3235  155.2483 C.3     1  UNL1        0.4354
     30 F         134.2438  141.2339  154.1757 F       1  UNL1       -0.1644
     31 F         134.7798  140.0471  155.8502 F       1  UNL1       -0.1644
     32 F         135.7970  142.5999  154.6465 F       1  UNL1       -0.1644
@<TRIPOS>BOND
     1    22    23    3
     2    23    19    1
     3    19    15    1
     4    15    16   am
     5    16    17    2
     6     9    16    1
     7     9    10    1
     8    10    11    1
     9    11    12    1
    10    12    13    1
    11    13    14    1
    12    14     1    1
    13     1     2    2
    14     1     3   am
    15     3     4    1
    16     4     5    1
    17     5     6    1
    18     6    24    1
    19    24    25   ar
    20    25    26   ar
    21    26    29    1
    22    29    30    1
    23    29    31    1
    24    29    32    1
    25    26    27   ar
    26    27    28   ar
    27     6     7    1
    28     7     8    1
    29    19    20    1
    30    20    21    1
    31    21    19    1
    32    14     9    1
    33     8     3    1
    34    28    24   ar
    35    15    18    1
@<TRIPOS>MOLECULE
*****
 32 35 0 0 0
SMALL
GASTEIGER

@<TRIPOS>ATOM
      1 C         139.8599  143.0018  164.6620 C.2     1  UNL1        0.2257
      2 O         139.8361  143.9419  165.8306 O.2     1  UNL1       -0.2749
      3 N         140.0574  143.5353  163.2741 N.am    1  UNL1       -0.2760
      4 C         140.0812  142.5952  162.1055 C.3     1  UNL1        0.1149
      5 C         140.2787  143.1287  160.7176 C.3     1  UNL1        0.1141
      6 N         140.4523  144.6025  160.4983 N.pl3   1  UNL1       -0.2847
      7 C         140.4285  145.5426  161.6669 C.3     1  UNL1        0.1141
      8 C         140.2310  145.0090  163.0548 C.3     1  UNL1        0.1149
      9 C         140.8892  140.6370  164.9763 C.3     1  UNL1        0.0851
     10 C         140.7155  139.1634  165.1956 C.3     1  UNL1        0.0096
     11 C         139.3390  138.5807  165.3199 C.3     1  UNL1        0.0005
     12 C         138.1360  139.4717  165.2249 C.3     1  UNL1        0.0005
     13 C         138.3096  140.9454  165.0057 C.3     1  UNL1        0.0096
     14 C         139.6862  141.5280  164.8813 C.3     1  UNL1        0.0853
     15 N         143.0438  141.0415  163.5820 N.am    1  UNL1       -0.2959
     16 C         142.2658  141.2198  164.8520 C.2     1  UNL1        0.2231
     17 O         142.8644  141.9807  165.9977 O.2     1  UNL1       -0.2751
     18 H         142.6509  140.5421  162.8300 H       1  UNL1        0.1502
     19 C         144.4204  141.6243  163.4576 C.3     1  UNL1        0.1364
     20 C         145.9123  141.7483  163.5515 C.3     1  UNL1        0.0353
     21 C         145.2305  140.5057  164.0427 C.3     1  UNL1        0.0353
     22 N         143.7560  144.2663  162.2012 N.1     1  UNL1       -0.1943
     23 C         144.0882  142.9452  162.8294 C.1     1  UNL1        0.0896
     24 C         140.6498  145.1360  159.1104 C.ar    1  UNL1        0.1631
     25 N         139.6670  145.9628  158.3355 N.ar    1  UNL1       -0.2201
     26 C         140.2745  146.2743  156.9999 C.ar    1  UNL1        0.1610
     27 C         141.6329  145.6400  156.9493 C.ar    1  UNL1        0.0612
     28 S         141.8648  144.9365  158.2537 S.2     1  UNL1       -0.0510
     29 C         139.6359  147.0788  155.9068 C.3     1  UNL1        0.4354
     30 F         138.9973  147.8832  154.8136 F       1  UNL1       -0.1644
     31 F         140.4562  146.3450  154.8875 F       1  UNL1       -0.1644
     32 F         138.8156  147.8124  156.9260 F       1  UNL1       -0.1644
@<TRIPOS>BOND
     1    22    23    3
     2    23    19    1
     3    19    15    1
     4    15    16   am
     5    16    17    2
     6     9    16    1
     7     9    10    1
     8    10    11    1
     9    11    12    1
    10    12    13    1
    11    13    14    1
    12    14     1    1
    13     1     2    2
    14     1     3   am
    15     3     4    1
    16     4     5    1
    17     5     6    1
    18     6    24    1
    19    24    25   ar
    20    25    26   ar
    21    26    29    1
    22    29    30    1
    23    29    31    1
    24    29    32    1
    25    26    27   ar
    26    27    28   ar
    27     6     7    1
    28     7     8    1
    29    19    20    1
    30    20    21    1
    31    21    19    1
    32    14     9    1
    33     8     3    1
    34    28    24   ar
    35    15    18    1
@<TRIPOS>MOLECULE
*****
 32 35 0 0 0
SMALL
GASTEIGER

@<TRIPOS>ATOM
      1 C         142.7832  141.5965  163.6845 C.2     1  UNL1        0.2257
      2 O         143.9607  141.4209  164.5971 O.2     1  UNL1       -0.2749
      3 N         142.6518  140.7442  162.4572 N.am    1  UNL1       -0.2760
      4 C         141.4743  140.9199  161.5446 C.3     1  UNL1        0.1149
      5 C         141.3429  140.0676  160.3173 C.3     1  UNL1        0.1141
      6 N         142.3890  139.0396  160.0026 N.pl3   1  UNL1       -0.2847
      7 C         143.5664  138.8639  160.9151 C.3     1  UNL1        0.1141
      8 C         143.6978  139.7162  162.1424 C.3     1  UNL1        0.1149
      9 C         140.4930  142.2270  164.7367 C.3     1  UNL1        0.0851
     10 C         139.4469  143.2550  165.0515 C.3     1  UNL1        0.0096
     11 C         139.6451  144.6804  164.6287 C.3     1  UNL1        0.0005
     12 C         140.8893  145.0779  163.8912 C.3     1  UNL1        0.0005
     13 C         141.9354  144.0500  163.5764 C.3     1  UNL1        0.0096
     14 C         141.7372  142.6245  163.9992 C.3     1  UNL1        0.0853
     15 N         139.3059  139.9355  164.4370 N.am    1  UNL1       -0.2959
     16 C         140.2948  140.8015  165.1595 C.2     1  UNL1        0.2231
     17 O         141.0856  140.2421  166.3048 O.2     1  UNL1       -0.2751
     18 H         138.7869  140.3027  163.6853 H       1  UNL1        0.1502
     19 C         139.1078  138.5099  164.8598 C.3     1  UNL1        0.1364
     20 C         138.5983  137.3243  165.6244 C.3     1  UNL1        0.0353
     21 C         138.1423  138.7056  165.9910 C.3     1  UNL1        0.0353
     22 N         140.9011  137.1287  162.8910 N.1     1  UNL1       -0.1943
     23 C         140.0044  137.8194  163.8754 C.1     1  UNL1        0.0896
     24 C         142.2576  138.1872  158.7753 C.ar    1  UNL1        0.1631
     25 N         143.2148  137.1186  158.3373 N.ar    1  UNL1       -0.2201
     26 C         142.6947  136.5248  157.0618 C.ar    1  UNL1        0.1610
     27 C         141.4160  137.2265  156.7114 C.ar    1  UNL1        0.0612
     28 S         141.1459  138.2539  157.7704 S.2     1  UNL1       -0.0510
     29 C         143.3399  135.4228  156.2749 C.3     1  UNL1        0.4354
     30 F         143.9852  134.3210  155.4879 F       1  UNL1       -0.1644
     31 F         144.4184  136.3683  155.8353 F       1  UNL1       -0.1644
     32 F         142.2615  134.4774  156.7144 F       1  UNL1       -0.1644
@<TRIPOS>BOND
     1    22    23    3
     2    23    19    1
     3    19    15    1
     4    15    16   am
     5    16    17    2
     6     9    16    1
     7     9    10    1
     8    10    11    1
     9    11    12    1
    10    12    13    1
    11    13    14    1
    12    14     1    1
    13     1     2    2
    14     1     3   am
    15     3     4    1
    16     4     5    1
    17     5     6    1
    18     6    24    1
    19    24    25   ar
    20    25    26   ar
    21    26    29    1
    22    29    30    1
    23    29    31    1
    24    29    32    1
    25    26    27   ar
    26    27    28   ar
    27     6     7    1
    28     7     8    1
    29    19    20    1
    30    20    21    1
    31    21    19    1
    32    14     9    1
    33     8     3    1
    34    28    24   ar
    35    15    18    1
@<TRIPOS>MOLECULE
*****
 32 35 0 0 0
SMALL
GASTEIGER

@<TRIPOS>ATOM
      1 C         142.2249  139.2631  165.5469 C.2     1  UNL1        0.2257
      2 O         143.2584  139.1142  166.6237 O.2     1  UNL1       -0.2749
      3 N         142.6324  139.7036  164.1721 N.am    1  UNL1       -0.2760
      4 C         141.5989  139.8526  163.0952 C.3     1  UNL1        0.1149
      5 C         142.0063  140.2930  161.7204 C.3     1  UNL1        0.1141
      6 N         143.4473  140.5846  161.4226 N.pl3   1  UNL1       -0.2847
      7 C         144.4808  140.4356  162.4995 C.3     1  UNL1        0.1141
      8 C         144.0733  139.9952  163.8742 C.3     1  UNL1        0.1149
      9 C         140.0505  139.7851  166.8695 C.3     1  UNL1        0.0851
     10 C         138.6096  139.4936  167.1674 C.3     1  UNL1        0.0096
     11 C         137.9021  138.3886  166.4404 C.3     1  UNL1        0.0005
     12 C         138.6356  137.5752  165.4155 C.3     1  UNL1        0.0005
     13 C         140.0765  137.8667  165.1177 C.3     1  UNL1        0.0096
     14 C         140.7840  138.9716  165.8447 C.3     1  UNL1        0.0853
     15 N         141.5217  140.5927  168.8528 N.am    1  UNL1       -0.2959
     16 C         140.7580  140.8901  167.5965 C.2     1  UNL1        0.2231
     17 O         140.7017  142.2925  167.0672 O.2     1  UNL1       -0.2751
     18 H         141.5587  139.6723  169.2002 H       1  UNL1        0.1502
     19 C         142.2292  141.6977  169.5798 C.3     1  UNL1        0.1364
     20 C         143.2669  142.7291  169.9106 C.3     1  UNL1        0.0353
     21 C         143.4256  141.8697  168.6914 C.3     1  UNL1        0.0353
     22 N         140.3277  142.1211  171.8613 N.1     1  UNL1       -0.1943
     23 C         141.2785  141.9094  170.7205 C.1     1  UNL1        0.0896
     24 C         143.8548  141.0251  160.0478 C.ar    1  UNL1        0.1631
     25 N         144.2169  140.1242  158.9045 N.ar    1  UNL1       -0.2201
     26 C         144.5576  140.9861  157.7250 C.ar    1  UNL1        0.1610
     27 C         144.4060  142.4197  158.1395 C.ar    1  UNL1        0.0612
     28 S         143.9716  142.4438  159.5750 S.2     1  UNL1       -0.0510
     29 C         144.9763  140.4998  156.3693 C.3     1  UNL1        0.4354
     30 F         145.3949  140.0134  155.0135 F       1  UNL1       -0.1644
     31 F         143.7018  139.7167  156.2566 F       1  UNL1       -0.1644
     32 F         146.2507  141.2828  156.4820 F       1  UNL1       -0.1644
@<TRIPOS>BOND
     1    22    23    3
     2    23    19    1
     3    19    15    1
     4    15    16   am
     5    16    17    2
     6     9    16    1
     7     9    10    1
     8    10    11    1
     9    11    12    1
    10    12    13    1
    11    13    14    1
    12    14     1    1
    13     1     2    2
    14     1     3   am
    15     3     4    1
    16     4     5    1
    17     5     6    1
    18     6    24    1
    19    24    25   ar
    20    25    26   ar
    21    26    29    1
    22    29    30    1
    23    29    31    1
    24    29    32    1
    25    26    27   ar
    26    27    28   ar
    27     6     7    1
    28     7     8    1
    29    19    20    1
    30    20    21    1
    31    21    19    1
    32    14     9    1
    33     8     3    1
    34    28    24   ar
    35    15    18    1
@<TRIPOS>MOLECULE
*****
 32 35 0 0 0
SMALL
GASTEIGER

@<TRIPOS>ATOM
      1 C         138.7562  140.3116  164.2201 C.2     1  UNL1        0.2257
      2 O         138.2100  139.3095  165.1935 O.2     1  UNL1       -0.2749
      3 N         139.2491  139.8610  162.8770 N.am    1  UNL1       -0.2760
      4 C         139.7953  140.8632  161.9036 C.3     1  UNL1        0.1149
      5 C         140.2882  140.4126  160.5605 C.3     1  UNL1        0.1141
      6 N         140.2350  138.9598  160.1907 N.pl3   1  UNL1       -0.2847
      7 C         139.6888  137.9577  161.1641 C.3     1  UNL1        0.1141
      8 C         139.1959  138.4083  162.5072 C.3     1  UNL1        0.1149
      9 C         140.0458  142.3327  165.2212 C.3     1  UNL1        0.0851
     10 C         140.0991  143.7854  165.5910 C.3     1  UNL1        0.0096
     11 C         138.9162  144.6698  165.3294 C.3     1  UNL1        0.0005
     12 C         137.6799  144.1015  164.6980 C.3     1  UNL1        0.0005
     13 C         137.6266  142.6488  164.3282 C.3     1  UNL1        0.0096
     14 C         138.8095  141.7644  164.5899 C.3     1  UNL1        0.0853
     15 N         141.0596  140.1830  166.2705 N.am    1  UNL1       -0.2959
     16 C         141.2288  141.4483  165.4829 C.2     1  UNL1        0.2231
     17 O         142.5809  141.8292  164.9568 O.2     1  UNL1       -0.2751
     18 H         140.1722  139.9330  166.6158 H       1  UNL1        0.1502
     19 C         142.2426  139.2986  166.5322 C.3     1  UNL1        0.1364
     20 C         143.2936  138.2502  166.3173 C.3     1  UNL1        0.0353
     21 C         142.2735  138.5193  165.2509 C.3     1  UNL1        0.0353
     22 N         143.0019  140.2430  169.2765 N.1     1  UNL1       -0.1943
     23 C         142.6223  139.7708  167.9043 C.1     1  UNL1        0.0896
     24 C         140.7279  138.5092  158.8476 C.ar    1  UNL1        0.1631
     25 N         142.0923  137.9635  158.5467 N.ar    1  UNL1       -0.2201
     26 C         142.1506  137.6422  157.0827 C.ar    1  UNL1        0.1610
     27 C         140.8222  137.9893  156.4787 C.ar    1  UNL1        0.0612
     28 S         139.9429  138.5252  157.5695 S.2     1  UNL1       -0.0510
     29 C         143.3302  137.0736  156.3511 C.3     1  UNL1        0.4354
     30 F         144.5097  136.5049  155.6196 F       1  UNL1       -0.1644
     31 F         143.2607  135.8383  157.1993 F       1  UNL1       -0.1644
     32 F         143.3996  138.3088  155.5030 F       1  UNL1       -0.1644
@<TRIPOS>BOND
     1    22    23    3
     2    23    19    1
     3    19    15    1
     4    15    16   am
     5    16    17    2
     6     9    16    1
     7     9    10    1
     8    10    11    1
     9    11    12    1
    10    12    13    1
    11    13    14    1
    12    14     1    1
    13     1     2    2
    14     1     3   am
    15     3     4    1
    16     4     5    1
    17     5     6    1
    18     6    24    1
    19    24    25   ar
    20    25    26   ar
    21    26    29    1
    22    29    30    1
    23    29    31    1
    24    29    32    1
    25    26    27   ar
    26    27    28   ar
    27     6     7    1
    28     7     8    1
    29    19    20    1
    30    20    21    1
    31    21    19    1
    32    14     9    1
    33     8     3    1
    34    28    24   ar
    35    15    18    1
@<TRIPOS>MOLECULE
*****
 32 35 0 0 0
SMALL
GASTEIGER

@<TRIPOS>ATOM
      1 C         142.1579  141.0600  161.4343 C.2     1  UNL1        0.2257
      2 O         141.7243  139.6241  161.4411 O.2     1  UNL1       -0.2749
      3 N         141.6002  142.0071  160.4135 N.am    1  UNL1       -0.2760
      4 C         142.0339  143.4431  160.4067 C.3     1  UNL1        0.1149
      5 C         141.4762  144.3901  159.3859 C.3     1  UNL1        0.1141
      6 N         140.4848  143.9012  158.3719 N.pl3   1  UNL1       -0.2847
      7 C         140.0511  142.4653  158.3787 C.3     1  UNL1        0.1141
      8 C         140.6089  141.5183  159.3995 C.3     1  UNL1        0.1149
      9 C         142.6714  142.2262  163.6985 C.3     1  UNL1        0.0851
     10 C         143.6627  142.7151  164.7125 C.3     1  UNL1        0.0096
     11 C         145.1320  142.5268  164.4763 C.3     1  UNL1        0.0005
     12 C         145.6099  141.8496  163.2261 C.3     1  UNL1        0.0005
     13 C         144.6186  141.3607  162.2121 C.3     1  UNL1        0.0096
     14 C         143.1493  141.5490  162.4483 C.3     1  UNL1        0.0853
     15 N         140.5833  143.7705  163.7675 N.am    1  UNL1       -0.2959
     16 C         141.2021  142.4144  163.9347 C.2     1  UNL1        0.2231
     17 O         140.3516  141.2465  164.3381 O.2     1  UNL1       -0.2751
     18 H         141.1415  144.5371  163.5027 H       1  UNL1        0.1502
     19 C         139.1140  143.9588  164.0037 C.3     1  UNL1        0.1364
     20 C         137.8285  144.2685  164.7119 C.3     1  UNL1        0.0353
     21 C         139.1330  144.3740  165.4449 C.3     1  UNL1        0.0353
     22 N         138.0558  143.2591  161.2851 N.1     1  UNL1       -0.1943
     23 C         138.5848  143.6090  162.6444 C.1     1  UNL1        0.0896
     24 C         139.9271  144.8483  157.3511 C.ar    1  UNL1        0.1631
     25 N         139.8576  146.3412  157.4786 N.ar    1  UNL1       -0.2201
     26 C         139.2285  146.8843  156.2299 C.ar    1  UNL1        0.1610
     27 C         138.9091  145.7270  155.3307 C.ar    1  UNL1        0.0612
     28 S         139.3408  144.4687  156.0236 S.2     1  UNL1       -0.0510
     29 C         138.9651  148.3308  155.9326 C.3     1  UNL1        0.4354
     30 F         138.7017  149.7772  155.6352 F       1  UNL1       -0.1644
     31 F         139.4632  148.1335  154.5314 F       1  UNL1       -0.1644
     32 F         138.4670  148.5280  157.3336 F       1  UNL1       -0.1644
@<TRIPOS>BOND
     1    22    23    3
     2    23    19    1
     3    19    15    1
     4    15    16   am
     5    16    17    2
     6     9    16    1
     7     9    10    1
     8    10    11    1
     9    11    12    1
    10    12    13    1
    11    13    14    1
    12    14     1    1
    13     1     2    2
    14     1     3   am
    15     3     4    1
    16     4     5    1
    17     5     6    1
    18     6    24    1
    19    24    25   ar
    20    25    26   ar
    21    26    29    1
    22    29    30    1
    23    29    31    1
    24    29    32    1
    25    26    27   ar
    26    27    28   ar
    27     6     7    1
    28     7     8    1
    29    19    20    1
    30    20    21    1
    31    21    19    1
    32    14     9    1
    33     8     3    1
    34    28    24   ar
    35    15    18    1
@<TRIPOS>MOLECULE
*****
 32 35 0 0 0
SMALL
GASTEIGER

@<TRIPOS>ATOM
      1 C         138.7567  140.3681  164.0879 C.2     1  UNL1        0.2257
      2 O         138.2743  139.3944  165.1219 O.2     1  UNL1       -0.2749
      3 N         139.1194  139.8855  162.7148 N.am    1  UNL1       -0.2760
      4 C         139.6019  140.8592  161.6807 C.3     1  UNL1        0.1149
      5 C         139.9646  140.3766  160.3076 C.3     1  UNL1        0.1141
      6 N         139.8448  138.9203  159.9684 N.pl3   1  UNL1       -0.2847
      7 C         139.3623  137.9467  161.0025 C.3     1  UNL1        0.1141
      8 C         138.9997  138.4293  162.3756 C.3     1  UNL1        0.1149
      9 C         140.1986  142.3882  164.8562 C.3     1  UNL1        0.0851
     10 C         140.3185  143.8444  165.1953 C.3     1  UNL1        0.0096
     11 C         139.1162  144.7368  165.1052 C.3     1  UNL1        0.0005
     12 C         137.7941  144.1730  164.6760 C.3     1  UNL1        0.0005
     13 C         137.6743  142.7168  164.3369 C.3     1  UNL1        0.0096
     14 C         138.8765  141.8244  164.4270 C.3     1  UNL1        0.0853
     15 N         142.3892  141.4526  163.8187 N.am    1  UNL1       -0.2959
     16 C         141.4009  141.4957  164.9463 C.2     1  UNL1        0.2231
     17 O         141.6149  140.6463  166.1639 O.2     1  UNL1       -0.2751
     18 H         142.2488  142.0101  163.0195 H       1  UNL1        0.1502
     19 C         143.5915  140.5601  163.9088 C.3     1  UNL1        0.1364
     20 C         144.9879  140.1026  164.2097 C.3     1  UNL1        0.0353
     21 C         144.5682  141.5027  164.5471 C.3     1  UNL1        0.0353
     22 N         142.4726  138.0553  162.6946 N.1     1  UNL1       -0.1943
     23 C         143.0321  139.3077  163.3017 C.1     1  UNL1        0.0896
     24 C         140.2075  138.4377  158.5953 C.ar    1  UNL1        0.1631
     25 N         139.2433  138.0427  157.5163 N.ar    1  UNL1       -0.2201
     26 C         140.0379  137.6262  156.3142 C.ar    1  UNL1        0.1610
     27 C         141.4933  137.7638  156.6502 C.ar    1  UNL1        0.0612
     28 S         141.5981  138.2653  158.0600 S.2     1  UNL1       -0.0510
     29 C         139.4759  137.1549  155.0058 C.3     1  UNL1        0.4354
     30 F         138.9139  136.6835  153.6974 F       1  UNL1       -0.1644
     31 F         140.3098  135.9113  155.0956 F       1  UNL1       -0.1644
     32 F         138.6420  138.3985  154.9160 F       1  UNL1       -0.1644
@<TRIPOS>BOND
     1    22    23    3
     2    23    19    1
     3    19    15    1
     4    15    16   am
     5    16    17    2
     6     9    16    1
     7     9    10    1
     8    10    11    1
     9    11    12    1
    10    12    13    1
    11    13    14    1
    12    14     1    1
    13     1     2    2
    14     1     3   am
    15     3     4    1
    16     4     5    1
    17     5     6    1
    18     6    24    1
    19    24    25   ar
    20    25    26   ar
    21    26    29    1
    22    29    30    1
    23    29    31    1
    24    29    32    1
    25    26    27   ar
    26    27    28   ar
    27     6     7    1
    28     7     8    1
    29    19    20    1
    30    20    21    1
    31    21    19    1
    32    14     9    1
    33     8     3    1
    34    28    24   ar
    35    15    18    1
@<TRIPOS>MOLECULE
*****
 32 35 0 0 0
SMALL
GASTEIGER

@<TRIPOS>ATOM
      1 C         138.0794  140.9652  163.4656 C.2     1  UNL1        0.2257
      2 O         136.9750  141.9642  163.2867 O.2     1  UNL1       -0.2749
      3 N         138.7035  140.3143  162.2669 N.am    1  UNL1       -0.2760
      4 C         139.8080  139.3152  162.4459 C.3     1  UNL1        0.1149
      5 C         140.4321  138.6644  161.2472 C.3     1  UNL1        0.1141
      6 N         139.9516  139.0126  159.8695 N.pl3   1  UNL1       -0.2847
      7 C         138.8472  140.0116  159.6906 C.3     1  UNL1        0.1141
      8 C         138.2231  140.6625  160.8893 C.3     1  UNL1        0.1149
      9 C         139.6335  141.4386  165.4932 C.3     1  UNL1        0.0851
     10 C         140.1139  141.0905  166.8708 C.3     1  UNL1        0.0096
     11 C         139.5208  139.9206  167.5986 C.3     1  UNL1        0.0005
     12 C         138.4472  139.0990  166.9487 C.3     1  UNL1        0.0005
     13 C         137.9668  139.4471  165.5711 C.3     1  UNL1        0.0096
     14 C         138.5599  140.6170  164.8433 C.3     1  UNL1        0.0853
     15 N         141.4583  142.4255  163.9292 N.am    1  UNL1       -0.2959
     16 C         140.2266  142.6085  164.7654 C.2     1  UNL1        0.2231
     17 O         139.5878  143.9614  164.8737 O.2     1  UNL1       -0.2751
     18 H         141.8775  141.5375  163.8581 H       1  UNL1        0.1502
     19 C         142.0514  143.5954  163.2014 C.3     1  UNL1        0.1364
     20 C         142.9116  144.7916  162.9200 C.3     1  UNL1        0.0353
     21 C         143.0264  144.0776  164.2342 C.3     1  UNL1        0.0353
     22 N         140.5131  143.4433  160.6303 N.1     1  UNL1       -0.1943
     23 C         141.2823  143.5193  161.9158 C.1     1  UNL1        0.0896
     24 C         140.5757  138.3617  158.6708 C.ar    1  UNL1        0.1631
     25 N         139.8396  137.7062  157.5401 N.ar    1  UNL1       -0.2201
     26 C         140.8544  137.1914  156.5628 C.ar    1  UNL1        0.1610
     27 C         142.2178  137.5288  157.0894 C.ar    1  UNL1        0.0612
     28 S         142.0455  138.2521  158.3922 S.2     1  UNL1       -0.0510
     29 C         140.5578  136.4666  155.2835 C.3     1  UNL1        0.4354
     30 F         140.2612  135.7417  154.0043 F       1  UNL1       -0.1644
     31 F         139.0875  136.5939  155.5522 F       1  UNL1       -0.1644
     32 F         142.0281  136.3392  155.0149 F       1  UNL1       -0.1644
@<TRIPOS>BOND
     1    22    23    3
     2    23    19    1
     3    19    15    1
     4    15    16   am
     5    16    17    2
     6     9    16    1
     7     9    10    1
     8    10    11    1
     9    11    12    1
    10    12    13    1
    11    13    14    1
    12    14     1    1
    13     1     2    2
    14     1     3   am
    15     3     4    1
    16     4     5    1
    17     5     6    1
    18     6    24    1
    19    24    25   ar
    20    25    26   ar
    21    26    29    1
    22    29    30    1
    23    29    31    1
    24    29    32    1
    25    26    27   ar
    26    27    28   ar
    27     6     7    1
    28     7     8    1
    29    19    20    1
    30    20    21    1
    31    21    19    1
    32    14     9    1
    33     8     3    1
    34    28    24   ar
    35    15    18    1
