@<TRIPOS>MOLECULE
*****
 33 36 0 0 0
SMALL
GASTEIGER

@<TRIPOS>ATOM
      1 C         143.0373  142.0105  165.7406 C.ar    1  UNL1        0.0860
      2 C         142.6152  143.1733  164.8923 C.ar    1  UNL1        0.0250
      3 C         143.2963  143.0478  163.5617 C.ar    1  UNL1        0.0668
      4 C         143.2577  143.9028  162.3298 C.ar    1  UNL1        0.1333
      5 N         144.0621  143.5174  161.1239 N.ar    1  UNL1       -0.2108
      6 C         144.9051  142.2770  161.1498 C.ar    1  UNL1        0.1773
      7 N         144.9437  141.4220  162.3817 N.ar    1  UNL1       -0.3214
      8 C         144.1393  141.8074  163.5877 C.ar    1  UNL1        0.1443
      9 N         143.9793  141.1663  164.9343 N.ar    1  UNL1       -0.2283
     10 H         145.4971  140.6079  162.3987 H       1  UNL1        0.1689
     11 C         141.4215  140.8414  167.4057 C.ar    1  UNL1        0.1399
     12 C         140.9794  140.5703  168.8132 C.ar    1  UNL1        0.0351
     13 C         141.7108  141.1971  169.9630 C.ar    1  UNL1        0.0100
     14 C         142.8844  142.0950  169.7053 C.ar    1  UNL1       -0.0016
     15 C         143.3266  142.3662  168.2979 C.ar    1  UNL1        0.0043
     16 C         142.5951  141.7394  167.1481 C.ar    1  UNL1        0.0516
     17 C         141.2686  140.9260  171.3705 C.3     1  UNL1        0.1637
     18 O         140.6073  142.0087  172.1706 O.3     1  UNL1       -0.3772
     19 H         141.2425  142.7232  172.3348 H       1  UNL1        0.2109
     20 C         139.4790  140.8876  165.6810 C.3     1  UNL1        0.2525
     21 O         140.6901  140.2146  166.2558 O.3     1  UNL1       -0.4714
     22 N         142.4146  145.1432  162.3039 N.pl3   1  UNL1       -0.3139
     23 H         142.7834  145.9960  162.6293 H       1  UNL1        0.1485
     24 CA        141.0095  145.0842  161.7822 C.3     1  UNL1        0.1227
     25 C         139.8883  144.6769  162.6915 C.ar    1  UNL1       -0.0021
     26 C         138.8028  143.7735  162.1857 C.ar    1  UNL1       -0.0026
     27 C         137.6816  143.3661  163.0950 C.ar    1  UNL1       -0.0003
     28 C         137.6458  143.8621  164.5102 C.ar    1  UNL1       -0.0000
     29 C         138.7312  144.7654  165.0160 C.ar    1  UNL1       -0.0003
     30 C         139.8525  145.1728  164.1067 C.ar    1  UNL1       -0.0026
     31 C         140.7256  145.4326  160.3510 C.3     1  UNL1        0.1611
     32 O         141.8524  145.5341  159.3661 O.3     1  UNL1       -0.3799
     33 H         142.4241  146.2805  159.6046 H       1  UNL1        0.2105
@<TRIPOS>BOND
     1    20    21    1
     2    21    11    1
     3    11    12   ar
     4    12    13   ar
     5    13    17    1
     6    17    18    1
     7    13    14   ar
     8    14    15   ar
     9    15    16   ar
    10    16     1    1
    11     1     2   ar
    12     2     3   ar
    13     3     4   ar
    14     4    22    1
    15    22    24    1
    16    24    31    1
    17    31    32    1
    18    24    25    1
    19    25    26   ar
    20    26    27   ar
    21    27    28   ar
    22    28    29   ar
    23    29    30   ar
    24     4     5   ar
    25     5     6   ar
    26     6     7   ar
    27     7     8   ar
    28     8     9   ar
    29    16    11   ar
    30     9     1   ar
    31     8     3    1
    32    30    25   ar
    33    18    19    1
    34    22    23    1
    35    32    33    1
    36     7    10    1
@<TRIPOS>MOLECULE
*****
 33 36 0 0 0
SMALL
GASTEIGER

@<TRIPOS>ATOM
      1 C         139.6139  140.0766  165.6750 C.ar    1  UNL1        0.0860
      2 C         140.6032  139.2735  164.8837 C.ar    1  UNL1        0.0250
      3 C         139.9536  138.8828  163.5893 C.ar    1  UNL1        0.0668
      4 C         140.4488  138.0882  162.4174 C.ar    1  UNL1        0.1333
      5 N         139.5533  137.8553  161.2369 N.ar    1  UNL1       -0.2108
      6 C         138.1625  138.4170  161.2282 C.ar    1  UNL1        0.1773
      7 N         137.6672  139.2116  162.4001 N.ar    1  UNL1       -0.3214
      8 C         138.5628  139.4445  163.5807 C.ar    1  UNL1        0.1443
      9 N         138.3528  140.1823  164.8697 N.ar    1  UNL1       -0.2283
     10 H         136.7543  139.5802  162.3944 H       1  UNL1        0.1689
     11 C         140.5093  142.0084  167.1638 C.ar    1  UNL1        0.1399
     12 C         140.7404  142.6016  168.5219 C.ar    1  UNL1        0.0351
     13 C         140.3072  141.8564  169.7495 C.ar    1  UNL1        0.0100
     14 C         139.6429  140.5179  169.6189 C.ar    1  UNL1       -0.0016
     15 C         139.4118  139.9246  168.2608 C.ar    1  UNL1        0.0043
     16 C         139.8450  140.6698  167.0332 C.ar    1  UNL1        0.0516
     17 C         140.5384  142.4497  171.1077 C.3     1  UNL1        0.1637
     18 O         141.8230  142.1821  171.8343 O.3     1  UNL1       -0.3772
     19 H         141.8781  141.2397  172.0573 H       1  UNL1        0.2109
     20 C         142.3519  142.6249  165.4390 C.3     1  UNL1        0.2525
     21 O         140.9425  142.7536  165.9362 O.3     1  UNL1       -0.4714
     22 N         141.8397  137.5266  162.4261 N.pl3   1  UNL1       -0.3139
     23 H         142.0351  136.7036  162.9298 H       1  UNL1        0.1485
     24 CA        142.9328  138.2188  161.6672 C.3     1  UNL1        0.1227
     25 C         143.7855  139.2465  162.3505 C.ar    1  UNL1       -0.0021
     26 C         144.2278  139.0320  163.7677 C.ar    1  UNL1       -0.0026
     27 C         145.0804  140.0596  164.4510 C.ar    1  UNL1       -0.0003
     28 C         145.4909  141.3018  163.7171 C.ar    1  UNL1       -0.0000
     29 C         145.0486  141.5163  162.2999 C.ar    1  UNL1       -0.0003
     30 C         144.1959  140.4886  161.6166 C.ar    1  UNL1       -0.0026
     31 C         143.1733  137.8834  160.2251 C.3     1  UNL1        0.1611
     32 O         142.0554  137.9992  159.2317 O.3     1  UNL1       -0.3799
     33 H         141.3700  137.3447  159.4385 H       1  UNL1        0.2105
@<TRIPOS>BOND
     1    20    21    1
     2    21    11    1
     3    11    12   ar
     4    12    13   ar
     5    13    17    1
     6    17    18    1
     7    13    14   ar
     8    14    15   ar
     9    15    16   ar
    10    16     1    1
    11     1     2   ar
    12     2     3   ar
    13     3     4   ar
    14     4    22    1
    15    22    24    1
    16    24    31    1
    17    31    32    1
    18    24    25    1
    19    25    26   ar
    20    26    27   ar
    21    27    28   ar
    22    28    29   ar
    23    29    30   ar
    24     4     5   ar
    25     5     6   ar
    26     6     7   ar
    27     7     8   ar
    28     8     9   ar
    29    16    11   ar
    30     9     1   ar
    31     8     3    1
    32    30    25   ar
    33    18    19    1
    34    22    23    1
    35    32    33    1
    36     7    10    1
@<TRIPOS>MOLECULE
*****
 33 36 0 0 0
SMALL
GASTEIGER

@<TRIPOS>ATOM
      1 C         140.2563  143.1123  165.4985 C.ar    1  UNL1        0.0860
      2 C         141.4519  143.3150  164.6155 C.ar    1  UNL1        0.0250
      3 C         141.0262  144.1481  163.4430 C.ar    1  UNL1        0.0668
      4 C         141.7783  144.6627  162.2516 C.ar    1  UNL1        0.1333
      5 N         141.0719  145.4896  161.2185 N.ar    1  UNL1       -0.2108
      6 C         139.6134  145.8018  161.3768 C.ar    1  UNL1        0.1773
      7 N         138.8612  145.2871  162.5682 N.ar    1  UNL1       -0.3214
      8 C         139.5676  144.4603  163.6013 C.ar    1  UNL1        0.1443
      9 N         139.0918  143.8201  164.8717 N.ar    1  UNL1       -0.2283
     10 H         137.9039  145.4920  162.6721 H       1  UNL1        0.1689
     11 C         139.9198  140.8703  166.7674 C.ar    1  UNL1        0.1399
     12 C         139.8934  140.0957  168.0517 C.ar    1  UNL1        0.0351
     13 C         140.1771  140.7887  169.3514 C.ar    1  UNL1        0.0100
     14 C         140.4872  142.2562  169.3668 C.ar    1  UNL1       -0.0016
     15 C         140.5136  143.0308  168.0825 C.ar    1  UNL1        0.0043
     16 C         140.2299  142.3378  166.7828 C.ar    1  UNL1        0.0516
     17 C         140.1506  140.0142  170.6357 C.3     1  UNL1        0.1637
     18 O         140.6116  140.6582  171.9095 O.3     1  UNL1       -0.3772
     19 H         141.5618  140.8448  171.8520 H       1  UNL1        0.2109
     20 C         138.2209  140.0134  164.9984 C.3     1  UNL1        0.2525
     21 O         139.6361  140.1773  165.4676 O.3     1  UNL1       -0.4714
     22 N         143.2370  144.3505  162.0933 N.pl3   1  UNL1       -0.3139
     23 H         143.9146  144.9885  162.4143 H       1  UNL1        0.1485
     24 CA        143.6631  143.0662  161.4460 C.3     1  UNL1        0.1227
     25 C         144.0422  141.8886  162.2940 C.ar    1  UNL1       -0.0021
     26 C         143.2786  140.6028  162.1766 C.ar    1  UNL1       -0.0026
     27 C         143.6578  139.4251  163.0246 C.ar    1  UNL1       -0.0003
     28 C         144.8006  139.5332  163.9903 C.ar    1  UNL1       -0.0000
     29 C         145.5642  140.8189  164.1078 C.ar    1  UNL1       -0.0003
     30 C         145.1850  141.9966  163.2597 C.ar    1  UNL1       -0.0026
     31 C         143.7100  142.9596  159.9504 C.3     1  UNL1        0.1611
     32 O         142.9034  143.9009  159.1058 O.3     1  UNL1       -0.3799
     33 H         141.9585  143.7365  159.2507 H       1  UNL1        0.2105
@<TRIPOS>BOND
     1    20    21    1
     2    21    11    1
     3    11    12   ar
     4    12    13   ar
     5    13    17    1
     6    17    18    1
     7    13    14   ar
     8    14    15   ar
     9    15    16   ar
    10    16     1    1
    11     1     2   ar
    12     2     3   ar
    13     3     4   ar
    14     4    22    1
    15    22    24    1
    16    24    31    1
    17    31    32    1
    18    24    25    1
    19    25    26   ar
    20    26    27   ar
    21    27    28   ar
    22    28    29   ar
    23    29    30   ar
    24     4     5   ar
    25     5     6   ar
    26     6     7   ar
    27     7     8   ar
    28     8     9   ar
    29    16    11   ar
    30     9     1   ar
    31     8     3    1
    32    30    25   ar
    33    18    19    1
    34    22    23    1
    35    32    33    1
    36     7    10    1
@<TRIPOS>MOLECULE
*****
 33 36 0 0 0
SMALL
GASTEIGER

@<TRIPOS>ATOM
      1 C         142.2213  139.2155  165.0476 C.ar    1  UNL1        0.0860
      2 C         143.0705  140.1207  164.2053 C.ar    1  UNL1        0.0250
      3 C         143.2628  139.4656  162.8697 C.ar    1  UNL1        0.0668
      4 C         144.0086  139.8928  161.6404 C.ar    1  UNL1        0.1333
      5 N         144.0242  139.0099  160.4279 N.ar    1  UNL1       -0.2108
      6 C         143.2940  137.6998  160.4447 C.ar    1  UNL1        0.1773
      7 N         142.5482  137.2726  161.6741 N.ar    1  UNL1       -0.3214
      8 C         142.5326  138.1555  162.8865 C.ar    1  UNL1        0.1443
      9 N         141.8889  138.0009  164.2326 N.ar    1  UNL1       -0.2283
     10 H         142.0689  136.4127  161.6851 H       1  UNL1        0.1689
     11 C         140.3720  139.9093  166.7355 C.ar    1  UNL1        0.1399
     12 C         139.9324  140.1724  168.1453 C.ar    1  UNL1        0.0351
     13 C         140.9025  140.0048  169.2770 C.ar    1  UNL1        0.0100
     14 C         142.3122  139.5741  168.9989 C.ar    1  UNL1       -0.0016
     15 C         142.7518  139.3110  167.5892 C.ar    1  UNL1        0.0043
     16 C         141.7817  139.4786  166.4575 C.ar    1  UNL1        0.0516
     17 C         140.4629  140.2679  170.6868 C.3     1  UNL1        0.1637
     18 O         139.6764  139.2313  171.4330 O.3     1  UNL1       -0.3772
     19 H         138.8103  139.1172  171.0116 H       1  UNL1        0.2109
     20 C         138.4722  138.9571  165.2408 C.3     1  UNL1        0.2525
     21 O         139.4020  140.0769  165.6037 O.3     1  UNL1       -0.4714
     22 N         144.7389  141.2030  161.6235 N.pl3   1  UNL1       -0.3139
     23 H         145.6503  141.2633  161.9909 H       1  UNL1        0.1485
     24 CA        144.0805  142.4212  161.0471 C.3     1  UNL1        0.1227
     25 C         143.4202  143.4169  161.9539 C.ar    1  UNL1       -0.0021
     26 C         141.9947  143.8187  161.7155 C.ar    1  UNL1       -0.0026
     27 C         141.3344  144.8144  162.6224 C.ar    1  UNL1       -0.0003
     28 C         142.0994  145.4084  163.7677 C.ar    1  UNL1       -0.0000
     29 C         143.5248  145.0067  164.0062 C.ar    1  UNL1       -0.0003
     30 C         144.1852  144.0109  163.0993 C.ar    1  UNL1       -0.0026
     31 C         144.0824  142.6437  159.5636 C.3     1  UNL1        0.1611
     32 O         144.4508  141.5227  158.6376 O.3     1  UNL1       -0.3799
     33 H         145.3831  141.2888  158.7679 H       1  UNL1        0.2105
@<TRIPOS>BOND
     1    20    21    1
     2    21    11    1
     3    11    12   ar
     4    12    13   ar
     5    13    17    1
     6    17    18    1
     7    13    14   ar
     8    14    15   ar
     9    15    16   ar
    10    16     1    1
    11     1     2   ar
    12     2     3   ar
    13     3     4   ar
    14     4    22    1
    15    22    24    1
    16    24    31    1
    17    31    32    1
    18    24    25    1
    19    25    26   ar
    20    26    27   ar
    21    27    28   ar
    22    28    29   ar
    23    29    30   ar
    24     4     5   ar
    25     5     6   ar
    26     6     7   ar
    27     7     8   ar
    28     8     9   ar
    29    16    11   ar
    30     9     1   ar
    31     8     3    1
    32    30    25   ar
    33    18    19    1
    34    22    23    1
    35    32    33    1
    36     7    10    1
@<TRIPOS>MOLECULE
*****
 33 36 0 0 0
SMALL
GASTEIGER

@<TRIPOS>ATOM
      1 C         142.3610  141.7107  165.7791 C.ar    1  UNL1        0.0860
      2 C         142.0560  142.9374  164.9716 C.ar    1  UNL1        0.0250
      3 C         143.0011  142.9728  163.8073 C.ar    1  UNL1        0.0668
      4 C         143.1670  143.9465  162.6784 C.ar    1  UNL1        0.1333
      5 N         144.2218  143.7154  161.6374 N.ar    1  UNL1       -0.2108
      6 C         145.1109  142.5105  161.7253 C.ar    1  UNL1        0.1773
      7 N         144.9451  141.5367  162.8542 N.ar    1  UNL1       -0.3214
      8 C         143.8902  141.7679  163.8952 C.ar    1  UNL1        0.1443
      9 N         143.4946  140.9879  165.1138 N.ar    1  UNL1       -0.2283
     10 H         145.5286  140.7459  162.9118 H       1  UNL1        0.1689
     11 C         142.1976  141.6835  168.3719 C.ar    1  UNL1        0.1399
     12 C         141.4929  141.2548  169.6247 C.ar    1  UNL1        0.0351
     13 C         140.2467  140.4245  169.5375 C.ar    1  UNL1        0.0100
     14 C         139.7053  140.0229  168.1975 C.ar    1  UNL1       -0.0016
     15 C         140.4101  140.4516  166.9447 C.ar    1  UNL1        0.0043
     16 C         141.6562  141.2819  167.0319 C.ar    1  UNL1        0.0516
     17 C         139.5419  139.9958  170.7903 C.3     1  UNL1        0.1637
     18 O         138.0963  139.5990  170.7392 O.3     1  UNL1       -0.3772
     19 H         137.5572  140.3708  170.5058 H       1  UNL1        0.2109
     20 C         144.1923  142.6093  169.7555 C.3     1  UNL1        0.2525
     21 O         143.4439  142.5139  168.4591 O.3     1  UNL1       -0.4714
     22 N         142.2778  145.1515  162.5906 N.pl3   1  UNL1       -0.3139
     23 H         142.5942  146.0220  162.9242 H       1  UNL1        0.1485
     24 CA        140.9068  145.0300  161.9944 C.3     1  UNL1        0.1227
     25 C         139.7696  144.5167  162.8272 C.ar    1  UNL1       -0.0021
     26 C         139.5305  145.0780  164.1975 C.ar    1  UNL1       -0.0026
     27 C         138.3934  144.5647  165.0303 C.ar    1  UNL1       -0.0003
     28 C         137.4954  143.4901  164.4927 C.ar    1  UNL1       -0.0000
     29 C         137.7345  142.9288  163.1225 C.ar    1  UNL1       -0.0003
     30 C         138.8717  143.4421  162.2896 C.ar    1  UNL1       -0.0026
     31 C         140.6728  145.4217  160.5655 C.3     1  UNL1        0.1611
     32 O         141.8377  145.6151  159.6405 O.3     1  UNL1       -0.3799
     33 H         142.3608  146.3773  159.9343 H       1  UNL1        0.2105
@<TRIPOS>BOND
     1    20    21    1
     2    21    11    1
     3    11    12   ar
     4    12    13   ar
     5    13    17    1
     6    17    18    1
     7    13    14   ar
     8    14    15   ar
     9    15    16   ar
    10    16     1    1
    11     1     2   ar
    12     2     3   ar
    13     3     4   ar
    14     4    22    1
    15    22    24    1
    16    24    31    1
    17    31    32    1
    18    24    25    1
    19    25    26   ar
    20    26    27   ar
    21    27    28   ar
    22    28    29   ar
    23    29    30   ar
    24     4     5   ar
    25     5     6   ar
    26     6     7   ar
    27     7     8   ar
    28     8     9   ar
    29    16    11   ar
    30     9     1   ar
    31     8     3    1
    32    30    25   ar
    33    18    19    1
    34    22    23    1
    35    32    33    1
    36     7    10    1
@<TRIPOS>MOLECULE
*****
 33 36 0 0 0
SMALL
GASTEIGER

@<TRIPOS>ATOM
      1 C         143.0337  142.1222  165.7263 C.ar    1  UNL1        0.0860
      2 C         143.2626  140.8579  164.9525 C.ar    1  UNL1        0.0250
      3 C         143.8777  141.2259  163.6347 C.ar    1  UNL1        0.0668
      4 C         144.3195  140.3952  162.4665 C.ar    1  UNL1        0.1333
      5 N         144.9126  141.0564  161.2577 N.ar    1  UNL1       -0.2108
      6 C         145.0639  142.5481  161.2173 C.ar    1  UNL1        0.1773
      7 N         144.6221  143.3788  162.3855 N.ar    1  UNL1       -0.3214
      8 C         144.0289  142.7176  163.5942 C.ar    1  UNL1        0.1443
      9 N         143.5074  143.2716  164.8869 N.ar    1  UNL1       -0.2283
     10 H         144.7214  144.3579  162.3589 H       1  UNL1        0.1689
     11 C         140.9479  142.3070  167.2642 C.ar    1  UNL1        0.1399
     12 C         140.3503  142.4049  168.6365 C.ar    1  UNL1        0.0351
     13 C         141.2410  142.4159  169.8433 C.ar    1  UNL1        0.0100
     14 C         142.7293  142.3290  169.6779 C.ar    1  UNL1       -0.0016
     15 C         143.3269  142.2311  168.3055 C.ar    1  UNL1        0.0043
     16 C         142.4362  142.2201  167.0987 C.ar    1  UNL1        0.0516
     17 C         140.6435  142.5137  171.2158 C.3     1  UNL1        0.1637
     18 O         139.2752  143.1008  171.3979 O.3     1  UNL1       -0.3772
     19 H         139.2928  144.0413  171.1610 H       1  UNL1        0.2109
     20 C         139.4595  141.0064  165.5780 C.3     1  UNL1        0.2525
     21 O         140.0571  142.2960  166.0573 O.3     1  UNL1       -0.4714
     22 N         144.1682  138.9034  162.5070 N.pl3   1  UNL1       -0.3139
     23 H         144.8305  138.3542  162.9856 H       1  UNL1        0.1485
     24 CA        143.0078  138.2483  161.8183 C.3     1  UNL1        0.1227
     25 C         141.7239  138.0245  162.5608 C.ar    1  UNL1       -0.0021
     26 C         140.4126  138.1287  161.8399 C.ar    1  UNL1       -0.0026
     27 C         139.1286  137.9050  162.5825 C.ar    1  UNL1       -0.0003
     28 C         139.1560  137.5771  164.0459 C.ar    1  UNL1       -0.0000
     29 C         140.4672  137.4729  164.7668 C.ar    1  UNL1       -0.0003
     30 C         141.7512  137.6966  164.0243 C.ar    1  UNL1       -0.0026
     31 C         143.1314  137.8169  160.3869 C.3     1  UNL1        0.1611
     32 O         143.7455  138.7393  159.3759 O.3     1  UNL1       -0.3799
     33 H         143.1785  139.5181  159.2624 H       1  UNL1        0.2105
@<TRIPOS>BOND
     1    20    21    1
     2    21    11    1
     3    11    12   ar
     4    12    13   ar
     5    13    17    1
     6    17    18    1
     7    13    14   ar
     8    14    15   ar
     9    15    16   ar
    10    16     1    1
    11     1     2   ar
    12     2     3   ar
    13     3     4   ar
    14     4    22    1
    15    22    24    1
    16    24    31    1
    17    31    32    1
    18    24    25    1
    19    25    26   ar
    20    26    27   ar
    21    27    28   ar
    22    28    29   ar
    23    29    30   ar
    24     4     5   ar
    25     5     6   ar
    26     6     7   ar
    27     7     8   ar
    28     8     9   ar
    29    16    11   ar
    30     9     1   ar
    31     8     3    1
    32    30    25   ar
    33    18    19    1
    34    22    23    1
    35    32    33    1
    36     7    10    1
@<TRIPOS>MOLECULE
*****
 33 36 0 0 0
SMALL
GASTEIGER

@<TRIPOS>ATOM
      1 C         142.2617  139.3178  165.2048 C.ar    1  UNL1        0.0860
      2 C         143.1058  140.2589  164.3975 C.ar    1  UNL1        0.0250
      3 C         143.3294  139.6406  163.0492 C.ar    1  UNL1        0.0668
      4 C         144.0845  140.1116  161.8418 C.ar    1  UNL1        0.1333
      5 N         144.1338  139.2594  160.6084 N.ar    1  UNL1       -0.2108
      6 C         143.4279  137.9362  160.5825 C.ar    1  UNL1        0.1773
      7 N         142.6727  137.4652  161.7899 N.ar    1  UNL1       -0.3214
      8 C         142.6234  138.3174  163.0233 C.ar    1  UNL1        0.1443
      9 N         141.9636  138.1179  164.3555 N.ar    1  UNL1       -0.2283
     10 H         142.2093  136.5967  161.7729 H       1  UNL1        0.1689
     11 C         140.3794  139.9482  166.8810 C.ar    1  UNL1        0.1399
     12 C         139.9149  140.1683  168.2902 C.ar    1  UNL1        0.0351
     13 C         140.8683  139.9780  169.4324 C.ar    1  UNL1        0.0100
     14 C         142.2862  139.5677  169.1655 C.ar    1  UNL1       -0.0016
     15 C         142.7507  139.3476  167.7563 C.ar    1  UNL1        0.0043
     16 C         141.7973  139.5379  166.6141 C.ar    1  UNL1        0.0516
     17 C         140.4039  140.1981  170.8417 C.3     1  UNL1        0.1637
     18 O         139.5838  139.1499  171.5334 O.3     1  UNL1       -0.3772
     19 H         138.7248  139.0669  171.0905 H       1  UNL1        0.2109
     20 C         138.1311  139.3820  165.7086 C.3     1  UNL1        0.2525
     21 O         139.4260  140.1385  165.7386 O.3     1  UNL1       -0.4714
     22 N         144.7905  141.4349  161.8678 N.pl3   1  UNL1       -0.3139
     23 H         145.7744  141.4678  161.8791 H       1  UNL1        0.1485
     24 CA        143.9973  142.7080  161.8767 C.3     1  UNL1        0.1227
     25 C         142.8563  142.8874  160.9198 C.ar    1  UNL1       -0.0021
     26 C         143.1288  143.1722  159.4725 C.ar    1  UNL1       -0.0026
     27 C         141.9878  143.3516  158.5156 C.ar    1  UNL1       -0.0003
     28 C         140.5741  143.2464  159.0059 C.ar    1  UNL1       -0.0000
     29 C         140.3015  142.9616  160.4532 C.ar    1  UNL1       -0.0003
     30 C         141.4426  142.7822  161.4102 C.ar    1  UNL1       -0.0026
     31 C         144.3453  143.8017  162.8426 C.3     1  UNL1        0.1611
     32 O         143.9157  145.2119  162.5653 O.3     1  UNL1       -0.3799
     33 H         144.3742  145.5403  161.7761 H       1  UNL1        0.2105
@<TRIPOS>BOND
     1    20    21    1
     2    21    11    1
     3    11    12   ar
     4    12    13   ar
     5    13    17    1
     6    17    18    1
     7    13    14   ar
     8    14    15   ar
     9    15    16   ar
    10    16     1    1
    11     1     2   ar
    12     2     3   ar
    13     3     4   ar
    14     4    22    1
    15    22    24    1
    16    24    31    1
    17    31    32    1
    18    24    25    1
    19    25    26   ar
    20    26    27   ar
    21    27    28   ar
    22    28    29   ar
    23    29    30   ar
    24     4     5   ar
    25     5     6   ar
    26     6     7   ar
    27     7     8   ar
    28     8     9   ar
    29    16    11   ar
    30     9     1   ar
    31     8     3    1
    32    30    25   ar
    33    18    19    1
    34    22    23    1
    35    32    33    1
    36     7    10    1
@<TRIPOS>MOLECULE
*****
 33 36 0 0 0
SMALL
GASTEIGER

@<TRIPOS>ATOM
      1 C         142.6301  139.8480  164.7478 C.ar    1  UNL1        0.0860
      2 C         141.6681  140.2884  163.6845 C.ar    1  UNL1        0.0250
      3 C         141.9390  139.4795  162.4506 C.ar    1  UNL1        0.0668
      4 C         141.3030  139.4776  161.0921 C.ar    1  UNL1        0.1333
      5 N         141.7965  138.5356  160.0343 N.ar    1  UNL1       -0.2108
      6 C         142.9258  137.5954  160.3350 C.ar    1  UNL1        0.1773
      7 N         143.5617  137.5972  161.6936 N.ar    1  UNL1       -0.3214
      8 C         143.0683  138.5392  162.7514 C.ar    1  UNL1        0.1443
      9 N         143.4955  138.7670  164.1711 N.ar    1  UNL1       -0.2283
     10 H         144.3030  136.9801  161.8909 H       1  UNL1        0.1689
     11 C         143.0248  141.8433  166.3644 C.ar    1  UNL1        0.1399
     12 C         143.1070  142.3883  167.7594 C.ar    1  UNL1        0.0351
     13 C         142.8770  141.4830  168.9330 C.ar    1  UNL1        0.0100
     14 C         142.5646  140.0327  168.7116 C.ar    1  UNL1       -0.0016
     15 C         142.4823  139.4877  167.3166 C.ar    1  UNL1        0.0043
     16 C         142.7124  140.3930  166.1429 C.ar    1  UNL1        0.0516
     17 C         142.9592  142.0280  170.3282 C.3     1  UNL1        0.1637
     18 O         142.9371  143.5102  170.5568 O.3     1  UNL1       -0.3772
     19 H         143.7377  143.9075  170.1799 H       1  UNL1        0.2109
     20 C         144.6510  143.0144  164.7108 C.3     1  UNL1        0.2525
     21 O         143.2549  142.7487  165.1907 O.3     1  UNL1       -0.4714
     22 N         140.1736  140.4180  160.7914 N.pl3   1  UNL1       -0.3139
     23 H         140.2534  141.0624  160.0514 H       1  UNL1        0.1485
     24 CA        138.9228  140.3764  161.6182 C.3     1  UNL1        0.1227
     25 C         138.5238  141.5693  162.4353 C.ar    1  UNL1       -0.0021
     26 C         138.5058  142.9335  161.8118 C.ar    1  UNL1       -0.0026
     27 C         138.1069  144.1264  162.6289 C.ar    1  UNL1       -0.0003
     28 C         137.7259  143.9552  164.0696 C.ar    1  UNL1       -0.0000
     29 C         137.7439  142.5911  164.6931 C.ar    1  UNL1       -0.0003
     30 C         138.1429  141.3981  163.8760 C.ar    1  UNL1       -0.0026
     31 C         138.0708  139.1417  161.6279 C.3     1  UNL1        0.1611
     32 O         138.4137  138.0011  162.5397 O.3     1  UNL1       -0.3799
     33 H         139.2596  137.6124  162.2673 H       1  UNL1        0.2105
@<TRIPOS>BOND
     1    20    21    1
     2    21    11    1
     3    11    12   ar
     4    12    13   ar
     5    13    17    1
     6    17    18    1
     7    13    14   ar
     8    14    15   ar
     9    15    16   ar
    10    16     1    1
    11     1     2   ar
    12     2     3   ar
    13     3     4   ar
    14     4    22    1
    15    22    24    1
    16    24    31    1
    17    31    32    1
    18    24    25    1
    19    25    26   ar
    20    26    27   ar
    21    27    28   ar
    22    28    29   ar
    23    29    30   ar
    24     4     5   ar
    25     5     6   ar
    26     6     7   ar
    27     7     8   ar
    28     8     9   ar
    29    16    11   ar
    30     9     1   ar
    31     8     3    1
    32    30    25   ar
    33    18    19    1
    34    22    23    1
    35    32    33    1
    36     7    10    1
@<TRIPOS>MOLECULE
*****
 33 36 0 0 0
SMALL
GASTEIGER

@<TRIPOS>ATOM
      1 C         142.7074  140.2824  164.4384 C.ar    1  UNL1        0.0860
      2 C         141.5477  140.6511  163.5615 C.ar    1  UNL1        0.0250
      3 C         141.9398  140.3852  162.1383 C.ar    1  UNL1        0.0668
      4 C         141.2013  140.5596  160.8444 C.ar    1  UNL1        0.1333
      5 N         141.8647  140.2010  159.5478 N.ar    1  UNL1       -0.2108
      6 C         143.2668  139.6679  159.5451 C.ar    1  UNL1        0.1773
      7 N         144.0053  139.4934  160.8390 N.ar    1  UNL1       -0.3214
      8 C         143.3418  139.8521  162.1356 C.ar    1  UNL1        0.1443
      9 N         143.8163  139.7885  163.5571 N.ar    1  UNL1       -0.2283
     10 H         144.9255  139.1435  160.8372 H       1  UNL1        0.1689
     11 C         142.9287  141.7279  166.5859 C.ar    1  UNL1        0.1399
     12 C         142.9721  141.8343  168.0814 C.ar    1  UNL1        0.0351
     13 C         142.8375  140.6015  168.9252 C.ar    1  UNL1        0.0100
     14 C         142.6596  139.2623  168.2734 C.ar    1  UNL1       -0.0016
     15 C         142.6163  139.1559  166.7778 C.ar    1  UNL1        0.0043
     16 C         142.7508  140.3887  165.9341 C.ar    1  UNL1        0.0516
     17 C         142.8809  140.7079  170.4208 C.3     1  UNL1        0.1637
     18 O         143.5860  139.6579  171.2273 O.3     1  UNL1       -0.3772
     19 H         143.1177  138.8131  171.1381 H       1  UNL1        0.2109
     20 C         144.4242  143.4706  165.3706 C.3     1  UNL1        0.2525
     21 O         143.0633  142.9608  165.7420 O.3     1  UNL1       -0.4714
     22 N         139.7991  141.0928  160.8471 N.pl3   1  UNL1       -0.3139
     23 H         139.0360  140.4710  160.8311 H       1  UNL1        0.1485
     24 CA        139.5598  142.5733  160.8743 C.3     1  UNL1        0.1227
     25 C         139.3809  143.2802  162.1851 C.ar    1  UNL1       -0.0021
     26 C         138.0633  143.2146  162.8990 C.ar    1  UNL1       -0.0026
     27 C         137.8845  143.9215  164.2098 C.ar    1  UNL1       -0.0003
     28 C         139.0232  144.6941  164.8067 C.ar    1  UNL1       -0.0000
     29 C         140.3408  144.7598  164.0929 C.ar    1  UNL1       -0.0003
     30 C         140.5197  144.0528  162.7820 C.ar    1  UNL1       -0.0026
     31 C         139.4993  143.3469  159.5905 C.3     1  UNL1        0.1611
     32 O         138.3944  143.0874  158.6098 O.3     1  UNL1       -0.3799
     33 H         138.4821  142.1892  158.2541 H       1  UNL1        0.2105
@<TRIPOS>BOND
     1    20    21    1
     2    21    11    1
     3    11    12   ar
     4    12    13   ar
     5    13    17    1
     6    17    18    1
     7    13    14   ar
     8    14    15   ar
     9    15    16   ar
    10    16     1    1
    11     1     2   ar
    12     2     3   ar
    13     3     4   ar
    14     4    22    1
    15    22    24    1
    16    24    31    1
    17    31    32    1
    18    24    25    1
    19    25    26   ar
    20    26    27   ar
    21    27    28   ar
    22    28    29   ar
    23    29    30   ar
    24     4     5   ar
    25     5     6   ar
    26     6     7   ar
    27     7     8   ar
    28     8     9   ar
    29    16    11   ar
    30     9     1   ar
    31     8     3    1
    32    30    25   ar
    33    18    19    1
    34    22    23    1
    35    32    33    1
    36     7    10    1
