@<TRIPOS>MOLECULE
*****
 38 43 0 0 0
SMALL
GASTEIGER

@<TRIPOS>ATOM
      1 C         138.4355  139.1462  164.7041 C.3     1  UNL1        0.0955
      2 C         137.8370  140.5074  164.5061 C.3     1  UNL1        0.0287
      3 C         137.6223  141.0379  163.1195 C.3     1  UNL1        0.0193
      4 C         138.0061  140.2072  161.9310 C.3     1  UNL1        0.0700
      5 C         138.6045  138.8461  162.1289 C.3     1  UNL1        0.0193
      6 C         138.8192  138.3155  163.5155 C.3     1  UNL1        0.0287
      7 C         138.1428  139.8739  162.6715 C.3     1  UNL1        0.1562
      8 O         138.3369  139.3943  163.9252 O.3     1  UNL1       -0.3571
      9 N         137.7914  140.7377  160.5444 N.3     1  UNL1       -0.2939
     10 H         136.9902  141.3672  160.5908 H       1  UNL1        0.1235
     11 C         138.8901  141.4855  159.8491 C.3     1  UNL1        0.0954
     12 C         139.7424  142.4517  160.6173 C.2     1  UNL1       -0.0089
     13 C         140.9548  141.9622  161.3524 C.2     1  UNL1        0.0013
     14 C         141.8071  142.9285  162.1205 C.ar    1  UNL1        0.0546
     15 C         141.2385  143.6533  163.3043 C.ar    1  UNL1        0.1422
     16 F         139.8176  143.4119  163.7199 F       1  UNL1       -0.2041
     17 C         142.0908  144.6196  164.0724 C.ar    1  UNL1        0.0298
     18 C         143.5117  144.8609  163.6567 C.ar    1  UNL1        0.0046
     19 C         144.0802  144.1361  162.4730 C.ar    1  UNL1        0.0298
     20 C         143.2280  143.1698  161.7049 C.ar    1  UNL1        0.1422
     21 F         143.7966  142.4450  160.5211 F       1  UNL1       -0.2041
     22 C         138.6502  138.6157  166.0906 C.3     1  UNL1        0.0604
     23 O         143.0219  140.8942  164.6837 O.2     1  UNL1       -0.2670
     24 C         142.6119  141.2327  166.0864 C.ar    1  UNL1        0.2611
     25 C         143.4594  142.1526  166.9142 C.ar    1  UNL1        0.0623
     26 C         143.0495  142.4911  168.3168 C.ar    1  UNL1        0.0254
     27 C         141.7919  141.9096  168.8916 C.ar    1  UNL1        0.0972
     28 N         141.1463  142.0702  170.2436 N.ar    1  UNL1       -0.2400
     29 C         139.8693  141.4160  170.6806 C.ar    1  UNL1        0.1282
     30 C         139.1270  140.5157  169.7380 C.ar    1  UNL1        0.1588
     31 F         137.8500  139.8615  170.1751 F       1  UNL1       -0.2027
     32 C         139.6618  140.2698  168.3583 C.ar    1  UNL1        0.0500
     33 C         140.9444  140.9896  168.0638 C.ar    1  UNL1        0.0806
     34 N         141.3544  140.6512  166.6612 N.ar    1  UNL1       -0.2915
     35 C         140.3251  139.7221  166.0889 C.3     1  UNL1        0.1402
     36 C         139.2790  139.4864  167.1377 C.3     1  UNL1        0.1335
     37 O         138.1015  139.0687  167.9677 O.3     1  UNL1       -0.3806
     38 H         137.5376  138.4716  167.4515 H       1  UNL1        0.2108
@<TRIPOS>BOND
     1    23    24    2
     2    24    25   ar
     3    25    26   ar
     4    26    27   ar
     5    27    28   ar
     6    28    29   ar
     7    29    30   ar
     8    30    31    1
     9    30    32   ar
    10    32    33   ar
    11    33    34   ar
    12    34    35    1
    13    35    36    1
    14    36    37    1
    15    36    22    1
    16    22     1    1
    17     1     2    1
    18     2     3    1
    19     3     4    1
    20     4     9    1
    21     9    11    1
    22    11    12    1
    23    12    13    2
    24    13    14    1
    25    14    15   ar
    26    15    16    1
    27    15    17   ar
    28    17    18   ar
    29    18    19   ar
    30    19    20   ar
    31    20    21    1
    32     4     5    1
    33     5     6    1
    34     4     7    1
    35     7     8    1
    36    34    24   ar
    37     6     1    1
    38    33    27   ar
    39     8     1    1
    40    36    32    1
    41    20    14   ar
    42    37    38    1
    43     9    10    1
@<TRIPOS>MOLECULE
*****
 38 43 0 0 0
SMALL
GASTEIGER

@<TRIPOS>ATOM
      1 C         140.3845  138.2504  164.6254 C.3     1  UNL1        0.0955
      2 C         139.1356  138.6965  165.3265 C.3     1  UNL1        0.0287
      3 C         139.2306  139.5248  166.5735 C.3     1  UNL1        0.0193
      4 C         140.5744  139.9069  167.1195 C.3     1  UNL1        0.0700
      5 C         141.8232  139.4608  166.4185 C.3     1  UNL1        0.0193
      6 C         141.7283  138.6325  165.1715 C.3     1  UNL1        0.0287
      7 C         140.5728  139.4518  166.4332 C.3     1  UNL1        0.1562
      8 O         140.4869  138.7029  165.3057 O.3     1  UNL1       -0.3571
      9 N         140.6694  140.7351  168.3665 N.3     1  UNL1       -0.2939
     10 H         141.4415  140.3552  168.9142 H       1  UNL1        0.1235
     11 C         140.8948  142.2148  168.2686 C.3     1  UNL1        0.0954
     12 C         140.3042  142.9896  167.1280 C.2     1  UNL1       -0.0089
     13 C         140.9912  143.0028  165.7947 C.2     1  UNL1        0.0013
     14 C         140.4005  143.7776  164.6542 C.ar    1  UNL1        0.0546
     15 C         141.2288  144.7991  163.9327 C.ar    1  UNL1        0.1422
     16 F         142.6478  145.0458  164.3518 F       1  UNL1       -0.2041
     17 C         140.6381  145.5739  162.7923 C.ar    1  UNL1        0.0298
     18 C         139.2190  145.3272  162.3733 C.ar    1  UNL1        0.0046
     19 C         138.3908  144.3057  163.0947 C.ar    1  UNL1        0.0298
     20 C         138.9815  143.5309  164.2352 C.ar    1  UNL1        0.1422
     21 F         138.1532  142.5094  164.9567 F       1  UNL1       -0.2041
     22 C         140.2896  137.4222  163.3784 C.3     1  UNL1        0.0604
     23 O         137.2681  141.2081  161.6991 O.2     1  UNL1       -0.2670
     24 C         138.3933  140.8973  160.7571 C.ar    1  UNL1        0.2611
     25 C         138.5367  141.6696  159.4793 C.ar    1  UNL1        0.0623
     26 C         139.6618  141.3587  158.5372 C.ar    1  UNL1        0.0254
     27 C         140.6436  140.2756  158.8731 C.ar    1  UNL1        0.0972
     28 N         141.8479  139.7563  158.1311 N.ar    1  UNL1       -0.2400
     29 C         142.7477  138.6513  158.5990 C.ar    1  UNL1        0.1282
     30 C         142.4780  137.9674  159.9065 C.ar    1  UNL1        0.1588
     31 F         143.3779  136.8623  160.3745 F       1  UNL1       -0.2027
     32 C         141.3084  138.3885  160.7460 C.ar    1  UNL1        0.0500
     33 C         140.5003  139.5033  160.1510 C.ar    1  UNL1        0.0806
     34 N         139.3751  139.8142  161.0930 N.ar    1  UNL1       -0.2915
     35 C         139.4879  138.8914  162.2702 C.3     1  UNL1        0.1402
     36 C         140.6827  138.0103  162.0557 C.3     1  UNL1        0.1335
     37 O         141.7953  137.0062  162.1178 O.3     1  UNL1       -0.3806
     38 H         141.7229  136.4936  162.9381 H       1  UNL1        0.2108
@<TRIPOS>BOND
     1    23    24    2
     2    24    25   ar
     3    25    26   ar
     4    26    27   ar
     5    27    28   ar
     6    28    29   ar
     7    29    30   ar
     8    30    31    1
     9    30    32   ar
    10    32    33   ar
    11    33    34   ar
    12    34    35    1
    13    35    36    1
    14    36    37    1
    15    36    22    1
    16    22     1    1
    17     1     2    1
    18     2     3    1
    19     3     4    1
    20     4     9    1
    21     9    11    1
    22    11    12    1
    23    12    13    2
    24    13    14    1
    25    14    15   ar
    26    15    16    1
    27    15    17   ar
    28    17    18   ar
    29    18    19   ar
    30    19    20   ar
    31    20    21    1
    32     4     5    1
    33     5     6    1
    34     4     7    1
    35     7     8    1
    36    34    24   ar
    37     6     1    1
    38    33    27   ar
    39     8     1    1
    40    36    32    1
    41    20    14   ar
    42    37    38    1
    43     9    10    1
@<TRIPOS>MOLECULE
*****
 38 43 0 0 0
SMALL
GASTEIGER

@<TRIPOS>ATOM
      1 C         140.8649  138.1783  164.7241 C.3     1  UNL1        0.0955
      2 C         139.9238  138.9301  165.6182 C.3     1  UNL1        0.0287
      3 C         140.4367  139.5827  166.8676 C.3     1  UNL1        0.0193
      4 C         141.8905  139.4835  167.2231 C.3     1  UNL1        0.0700
      5 C         142.8315  138.7316  166.3291 C.3     1  UNL1        0.0193
      6 C         142.3188  138.0790  165.0796 C.3     1  UNL1        0.0287
      7 C         141.6561  139.1093  166.5280 C.3     1  UNL1        0.1562
      8 O         141.1924  138.5193  165.3983 O.3     1  UNL1       -0.3571
      9 N         142.4034  140.1360  168.4726 N.3     1  UNL1       -0.2939
     10 H         143.1968  139.5797  168.7910 H       1  UNL1        0.1235
     11 C         142.8614  141.5640  168.4390 C.3     1  UNL1        0.0954
     12 C         142.6271  142.3982  167.2146 C.2     1  UNL1       -0.0089
     13 C         143.4868  142.2064  166.0005 C.2     1  UNL1        0.0013
     14 C         143.2524  143.0407  164.7761 C.ar    1  UNL1        0.0546
     15 C         142.2914  142.5740  163.7232 C.ar    1  UNL1        0.1422
     16 F         141.5648  141.2730  163.8946 F       1  UNL1       -0.2041
     17 C         142.0570  143.4083  162.4989 C.ar    1  UNL1        0.0298
     18 C         142.7837  144.7094  162.3275 C.ar    1  UNL1        0.0046
     19 C         143.7446  145.1760  163.3805 C.ar    1  UNL1        0.0298
     20 C         143.9790  144.3417  164.6048 C.ar    1  UNL1        0.1422
     21 F         144.9400  144.8084  165.6577 F       1  UNL1       -0.2041
     22 C         140.3520  137.5257  163.4747 C.3     1  UNL1        0.0604
     23 O         137.3495  141.4236  162.0346 O.2     1  UNL1       -0.2670
     24 C         138.3987  141.0875  161.0167 C.ar    1  UNL1        0.2611
     25 C         138.4815  141.8686  159.7388 C.ar    1  UNL1        0.0623
     26 C         139.5306  141.5325  158.7209 C.ar    1  UNL1        0.0254
     27 C         140.4971  140.4152  158.9808 C.ar    1  UNL1        0.0972
     28 N         141.6317  139.8661  158.1552 N.ar    1  UNL1       -0.2400
     29 C         142.5245  138.7280  158.5522 C.ar    1  UNL1        0.1282
     30 C         142.3206  138.0389  159.8688 C.ar    1  UNL1        0.1588
     31 F         143.2134  136.9008  160.2658 F       1  UNL1       -0.2027
     32 C         141.2238  138.4877  160.7884 C.ar    1  UNL1        0.0500
     33 C         140.4143  139.6341  160.2586 C.ar    1  UNL1        0.0806
     34 N         139.3652  139.9702  161.2765 N.ar    1  UNL1       -0.2915
     35 C         139.5262  139.0316  162.4354 C.3     1  UNL1        0.1402
     36 C         140.6749  138.1153  162.1338 C.3     1  UNL1        0.1335
     37 O         141.7561  137.0759  162.1124 O.3     1  UNL1       -0.3806
     38 H         141.7220  136.5569  162.9312 H       1  UNL1        0.2108
@<TRIPOS>BOND
     1    23    24    2
     2    24    25   ar
     3    25    26   ar
     4    26    27   ar
     5    27    28   ar
     6    28    29   ar
     7    29    30   ar
     8    30    31    1
     9    30    32   ar
    10    32    33   ar
    11    33    34   ar
    12    34    35    1
    13    35    36    1
    14    36    37    1
    15    36    22    1
    16    22     1    1
    17     1     2    1
    18     2     3    1
    19     3     4    1
    20     4     9    1
    21     9    11    1
    22    11    12    1
    23    12    13    2
    24    13    14    1
    25    14    15   ar
    26    15    16    1
    27    15    17   ar
    28    17    18   ar
    29    18    19   ar
    30    19    20   ar
    31    20    21    1
    32     4     5    1
    33     5     6    1
    34     4     7    1
    35     7     8    1
    36    34    24   ar
    37     6     1    1
    38    33    27   ar
    39     8     1    1
    40    36    32    1
    41    20    14   ar
    42    37    38    1
    43     9    10    1
@<TRIPOS>MOLECULE
*****
 38 43 0 0 0
SMALL
GASTEIGER

@<TRIPOS>ATOM
      1 C         138.4291  141.7116  164.8985 C.3     1  UNL1        0.0955
      2 C         139.4803  142.6057  165.4865 C.3     1  UNL1        0.0287
      3 C         140.3980  142.0841  166.5523 C.3     1  UNL1        0.0193
      4 C         140.2645  140.6685  167.0300 C.3     1  UNL1        0.0700
      5 C         139.2133  139.7745  166.4420 C.3     1  UNL1        0.0193
      6 C         138.2956  140.2960  165.3762 C.3     1  UNL1        0.0287
      7 C         139.7386  140.9094  166.4439 C.3     1  UNL1        0.1562
      8 O         138.9089  141.3810  165.4803 O.3     1  UNL1       -0.3571
      9 N         141.1822  140.1469  168.0958 N.3     1  UNL1       -0.2939
     10 H         140.6476  139.4687  168.6387 H       1  UNL1        0.1235
     11 C         142.4699  139.4784  167.7153 C.3     1  UNL1        0.0954
     12 C         142.6195  138.8557  166.3588 C.2     1  UNL1       -0.0089
     13 C         142.8414  139.7234  165.1555 C.2     1  UNL1        0.0013
     14 C         142.9910  139.1007  163.7991 C.ar    1  UNL1        0.0546
     15 C         144.2600  139.2909  163.0223 C.ar    1  UNL1        0.1422
     16 F         145.3794  140.1039  163.6019 F       1  UNL1       -0.2041
     17 C         144.4096  138.6682  161.6659 C.ar    1  UNL1        0.0298
     18 C         143.2900  137.8552  161.0863 C.ar    1  UNL1        0.0046
     19 C         142.0211  137.6650  161.8632 C.ar    1  UNL1        0.0298
     20 C         141.8716  138.2877  163.2196 C.ar    1  UNL1        0.1422
     21 F         140.6026  138.0975  163.9964 F       1  UNL1       -0.2041
     22 C         137.5114  142.2332  163.8327 C.3     1  UNL1        0.0604
     23 O         140.3131  146.1393  162.0507 O.2     1  UNL1       -0.2670
     24 C         140.0387  145.0946  161.0098 C.ar    1  UNL1        0.2611
     25 C         140.5717  145.2644  159.6181 C.ar    1  UNL1        0.0623
     26 C         140.2973  144.2198  158.5772 C.ar    1  UNL1        0.0254
     27 C         139.4898  143.0054  158.9281 C.ar    1  UNL1        0.0972
     28 N         139.0655  141.8177  158.1035 N.ar    1  UNL1       -0.2400
     29 C         138.2469  140.6628  158.5993 C.ar    1  UNL1        0.1282
     30 C         137.7820  140.6303  160.0251 C.ar    1  UNL1        0.1588
     31 F         136.9634  139.4753  160.5209 F       1  UNL1       -0.2027
     32 C         138.1359  141.7527  160.9551 C.ar    1  UNL1        0.0500
     33 C         138.9568  142.8356  160.3198 C.ar    1  UNL1        0.0806
     34 N         139.2312  143.8802  161.3607 N.ar    1  UNL1       -0.2915
     35 C         138.5799  143.4430  162.6392 C.3     1  UNL1        0.1402
     36 C         137.9030  142.1281  162.3886 C.3     1  UNL1        0.1335
     37 O         137.1442  140.8352  162.4398 O.3     1  UNL1       -0.3806
     38 H         136.7892  140.7038  163.3329 H       1  UNL1        0.2108
@<TRIPOS>BOND
     1    23    24    2
     2    24    25   ar
     3    25    26   ar
     4    26    27   ar
     5    27    28   ar
     6    28    29   ar
     7    29    30   ar
     8    30    31    1
     9    30    32   ar
    10    32    33   ar
    11    33    34   ar
    12    34    35    1
    13    35    36    1
    14    36    37    1
    15    36    22    1
    16    22     1    1
    17     1     2    1
    18     2     3    1
    19     3     4    1
    20     4     9    1
    21     9    11    1
    22    11    12    1
    23    12    13    2
    24    13    14    1
    25    14    15   ar
    26    15    16    1
    27    15    17   ar
    28    17    18   ar
    29    18    19   ar
    30    19    20   ar
    31    20    21    1
    32     4     5    1
    33     5     6    1
    34     4     7    1
    35     7     8    1
    36    34    24   ar
    37     6     1    1
    38    33    27   ar
    39     8     1    1
    40    36    32    1
    41    20    14   ar
    42    37    38    1
    43     9    10    1
@<TRIPOS>MOLECULE
*****
 38 43 0 0 0
SMALL
GASTEIGER

@<TRIPOS>ATOM
      1 C         138.5934  138.3121  163.3385 C.3     1  UNL1        0.0955
      2 C         138.9431  137.2807  164.3701 C.3     1  UNL1        0.0287
      3 C         138.9397  137.6443  165.8253 C.3     1  UNL1        0.0193
      4 C         138.5866  139.0393  166.2490 C.3     1  UNL1        0.0700
      5 C         138.2369  140.0706  165.2175 C.3     1  UNL1        0.0193
      6 C         138.2403  139.7070  163.7622 C.3     1  UNL1        0.0287
      7 C         138.5748  138.8872  165.4398 C.3     1  UNL1        0.1562
      8 O         138.5779  138.5584  164.1240 O.3     1  UNL1       -0.3571
      9 N         138.5832  139.4029  167.7043 N.3     1  UNL1       -0.2939
     10 H         138.5007  138.5301  168.2257 H       1  UNL1        0.1235
     11 C         139.7422  140.1512  168.2930 C.3     1  UNL1        0.0954
     12 C         140.5747  141.0479  167.4252 C.2     1  UNL1       -0.0089
     13 C         141.7559  140.4915  166.6869 C.2     1  UNL1        0.0013
     14 C         142.5883  141.3882  165.8192 C.ar    1  UNL1        0.0546
     15 C         142.5486  141.2361  164.3274 C.ar    1  UNL1        0.1422
     16 F         141.6766  140.1873  163.7034 F       1  UNL1       -0.2041
     17 C         143.3811  142.1329  163.4597 C.ar    1  UNL1        0.0298
     18 C         144.2532  143.1817  164.0838 C.ar    1  UNL1        0.0046
     19 C         144.2928  143.3337  165.5755 C.ar    1  UNL1        0.0298
     20 C         143.4604  142.4370  166.4432 C.ar    1  UNL1        0.1422
     21 F         143.5000  142.5891  167.9350 F       1  UNL1       -0.2041
     22 C         138.5968  137.9485  161.8832 C.3     1  UNL1        0.0604
     23 O         137.1870  140.5542  157.6992 O.2     1  UNL1       -0.2670
     24 C         138.6732  140.3820  157.8069 C.ar    1  UNL1        0.2611
     25 C         139.5725  140.9496  156.7492 C.ar    1  UNL1        0.0623
     26 C         141.0587  140.7774  156.8569 C.ar    1  UNL1        0.0254
     27 C         141.6455  140.0375  158.0223 C.ar    1  UNL1        0.0972
     28 N         143.0729  139.7177  158.3838 N.ar    1  UNL1       -0.2400
     29 C         143.5125  138.9580  159.6002 C.ar    1  UNL1        0.1282
     30 C         142.4929  138.4485  160.5753 C.ar    1  UNL1        0.1588
     31 F         142.9326  137.6888  161.7917 F       1  UNL1       -0.2027
     32 C         141.0337  138.6987  160.3340 C.ar    1  UNL1        0.0500
     33 C         140.7462  139.4699  159.0800 C.ar    1  UNL1        0.0806
     34 N         139.2600  139.6421  158.9723 N.ar    1  UNL1       -0.2915
     35 C         138.6291  138.9773  160.1598 C.3     1  UNL1        0.1402
     36 C         139.7253  138.3943  161.0014 C.3     1  UNL1        0.1335
     37 O         140.5857  137.7180  162.0273 O.3     1  UNL1       -0.3806
     38 H         140.0242  137.3423  162.7233 H       1  UNL1        0.2108
@<TRIPOS>BOND
     1    23    24    2
     2    24    25   ar
     3    25    26   ar
     4    26    27   ar
     5    27    28   ar
     6    28    29   ar
     7    29    30   ar
     8    30    31    1
     9    30    32   ar
    10    32    33   ar
    11    33    34   ar
    12    34    35    1
    13    35    36    1
    14    36    37    1
    15    36    22    1
    16    22     1    1
    17     1     2    1
    18     2     3    1
    19     3     4    1
    20     4     9    1
    21     9    11    1
    22    11    12    1
    23    12    13    2
    24    13    14    1
    25    14    15   ar
    26    15    16    1
    27    15    17   ar
    28    17    18   ar
    29    18    19   ar
    30    19    20   ar
    31    20    21    1
    32     4     5    1
    33     5     6    1
    34     4     7    1
    35     7     8    1
    36    34    24   ar
    37     6     1    1
    38    33    27   ar
    39     8     1    1
    40    36    32    1
    41    20    14   ar
    42    37    38    1
    43     9    10    1
@<TRIPOS>MOLECULE
*****
 38 43 0 0 0
SMALL
GASTEIGER

@<TRIPOS>ATOM
      1 C         138.5242  141.9748  164.4278 C.3     1  UNL1        0.0955
      2 C         137.8416  142.0629  163.0949 C.3     1  UNL1        0.0287
      3 C         137.8408  143.3572  162.3368 C.3     1  UNL1        0.0193
      4 C         138.5225  144.5635  162.9114 C.3     1  UNL1        0.0700
      5 C         139.2051  144.4754  164.2442 C.3     1  UNL1        0.0193
      6 C         139.2060  143.1811  165.0024 C.3     1  UNL1        0.0287
      7 C         138.5495  143.8760  163.3639 C.3     1  UNL1        0.1562
      8 O         138.5503  142.7057  164.0494 O.3     1  UNL1       -0.3571
      9 N         138.5217  145.8578  162.1533 N.3     1  UNL1       -0.2939
     10 H         138.4304  146.6032  162.8435 H       1  UNL1        0.1235
     11 C         139.6876  146.2163  161.2804 C.3     1  UNL1        0.0954
     12 C         140.8069  145.2371  161.0844 C.2     1  UNL1       -0.0089
     13 C         140.6761  144.1419  160.0679 C.2     1  UNL1        0.0013
     14 C         141.7954  143.1628  159.8720 C.ar    1  UNL1        0.0546
     15 C         142.8533  143.4291  158.8424 C.ar    1  UNL1        0.1422
     16 F         142.7918  144.6746  158.0088 F       1  UNL1       -0.2041
     17 C         143.9726  142.4500  158.6465 C.ar    1  UNL1        0.0298
     18 C         144.0340  141.2045  159.4803 C.ar    1  UNL1        0.0046
     19 C         142.9761  140.9382  160.5098 C.ar    1  UNL1        0.0298
     20 C         141.8568  141.9174  160.7057 C.ar    1  UNL1        0.1422
     21 F         140.7989  141.6510  161.7352 F       1  UNL1       -0.2041
     22 C         138.5251  140.6805  165.1859 C.3     1  UNL1        0.0604
     23 O         138.9205  140.8373  170.2948 O.2     1  UNL1       -0.2670
     24 C         140.1305  140.2474  169.6332 C.ar    1  UNL1        0.2611
     25 C         141.2873  139.7796  170.4656 C.ar    1  UNL1        0.0623
     26 C         142.4974  139.1897  169.8039 C.ar    1  UNL1        0.0254
     27 C         142.5506  139.0676  168.3099 C.ar    1  UNL1        0.0972
     28 N         143.6152  138.5265  167.3910 N.ar    1  UNL1       -0.2400
     29 C         143.5253  138.4689  165.8948 C.ar    1  UNL1        0.1282
     30 C         142.2986  138.9771  165.1971 C.ar    1  UNL1        0.1588
     31 F         142.2087  138.9195  163.7009 F       1  UNL1       -0.2027
     32 C         141.1617  139.5429  165.9956 C.ar    1  UNL1        0.0500
     33 C         141.3938  139.5354  167.4775 C.ar    1  UNL1        0.0806
     34 N         140.1838  140.1253  168.1391 N.ar    1  UNL1       -0.2915
     35 C         139.2039  140.4974  167.0661 C.3     1  UNL1        0.1402
     36 C         139.8083  140.1375  165.7413 C.3     1  UNL1        0.1335
     37 O         140.1445  139.8911  164.3004 O.3     1  UNL1       -0.3806
     38 H         139.4087  140.1866  163.7416 H       1  UNL1        0.2108
@<TRIPOS>BOND
     1    23    24    2
     2    24    25   ar
     3    25    26   ar
     4    26    27   ar
     5    27    28   ar
     6    28    29   ar
     7    29    30   ar
     8    30    31    1
     9    30    32   ar
    10    32    33   ar
    11    33    34   ar
    12    34    35    1
    13    35    36    1
    14    36    37    1
    15    36    22    1
    16    22     1    1
    17     1     2    1
    18     2     3    1
    19     3     4    1
    20     4     9    1
    21     9    11    1
    22    11    12    1
    23    12    13    2
    24    13    14    1
    25    14    15   ar
    26    15    16    1
    27    15    17   ar
    28    17    18   ar
    29    18    19   ar
    30    19    20   ar
    31    20    21    1
    32     4     5    1
    33     5     6    1
    34     4     7    1
    35     7     8    1
    36    34    24   ar
    37     6     1    1
    38    33    27   ar
    39     8     1    1
    40    36    32    1
    41    20    14   ar
    42    37    38    1
    43     9    10    1
@<TRIPOS>MOLECULE
*****
 38 43 0 0 0
SMALL
GASTEIGER

@<TRIPOS>ATOM
      1 C         137.8835  140.6603  162.0808 C.3     1  UNL1        0.0955
      2 C         137.6776  140.5343  163.5614 C.3     1  UNL1        0.0287
      3 C         137.6298  141.7637  164.4193 C.3     1  UNL1        0.0193
      4 C         137.7878  143.1193  163.7968 C.3     1  UNL1        0.0700
      5 C         137.9937  143.2453  162.3164 C.3     1  UNL1        0.0193
      6 C         138.0415  142.0159  161.4584 C.3     1  UNL1        0.0287
      7 C         137.8211  142.4744  163.2858 C.3     1  UNL1        0.1562
      8 O         137.8643  141.3627  162.5101 O.3     1  UNL1       -0.3571
      9 N         137.7400  144.3488  164.6548 N.3     1  UNL1       -0.2939
     10 H         137.0444  144.1748  165.3802 H       1  UNL1        0.1235
     11 C         138.9802  144.8269  165.3499 C.3     1  UNL1        0.0954
     12 C         140.2039  143.9599  165.3813 C.2     1  UNL1       -0.0089
     13 C         141.1536  143.9605  164.2203 C.2     1  UNL1        0.0013
     14 C         142.3773  143.0934  164.2518 C.ar    1  UNL1        0.0546
     15 C         142.2470  141.6066  164.1028 C.ar    1  UNL1        0.1422
     16 F         140.8930  140.9867  163.9223 F       1  UNL1       -0.2041
     17 C         143.4706  140.7395  164.1343 C.ar    1  UNL1        0.0298
     18 C         144.8246  141.3595  164.3148 C.ar    1  UNL1        0.0046
     19 C         144.9548  142.8464  164.4637 C.ar    1  UNL1        0.0298
     20 C         143.7312  143.7134  164.4322 C.ar    1  UNL1        0.1422
     21 F         143.8615  145.2003  164.5812 F       1  UNL1       -0.2041
     22 C         137.9313  139.4308  161.2229 C.3     1  UNL1        0.0604
     23 O         138.0724  139.6715  156.1039 O.2     1  UNL1       -0.2670
     24 C         139.3559  139.1754  156.7009 C.ar    1  UNL1        0.2611
     25 C         140.5064  138.8119  155.8097 C.ar    1  UNL1        0.0623
     26 C         141.7899  138.3157  156.4067 C.ar    1  UNL1        0.0254
     27 C         141.9229  138.1831  157.8949 C.ar    1  UNL1        0.0972
     28 N         143.0697  137.7211  158.7561 N.ar    1  UNL1       -0.2400
     29 C         143.0551  137.6411  160.2539 C.ar    1  UNL1        0.1282
     30 C         141.8254  138.0406  161.0143 C.ar    1  UNL1        0.1588
     31 F         141.8108  137.9605  162.5121 F       1  UNL1       -0.2027
     32 C         140.6103  138.5201  160.2770 C.ar    1  UNL1        0.0500
     33 C         140.7724  138.5466  158.7860 C.ar    1  UNL1        0.0806
     34 N         139.4889  139.0427  158.1890 N.ar    1  UNL1       -0.2915
     35 C         138.5336  139.3228  159.3111 C.3     1  UNL1        0.1402
     36 C         139.2267  138.9998  160.6015 C.3     1  UNL1        0.1335
     37 O         139.6490  138.7669  162.0219 O.3     1  UNL1       -0.3806
     38 H         138.9188  138.9958  162.6180 H       1  UNL1        0.2108
@<TRIPOS>BOND
     1    23    24    2
     2    24    25   ar
     3    25    26   ar
     4    26    27   ar
     5    27    28   ar
     6    28    29   ar
     7    29    30   ar
     8    30    31    1
     9    30    32   ar
    10    32    33   ar
    11    33    34   ar
    12    34    35    1
    13    35    36    1
    14    36    37    1
    15    36    22    1
    16    22     1    1
    17     1     2    1
    18     2     3    1
    19     3     4    1
    20     4     9    1
    21     9    11    1
    22    11    12    1
    23    12    13    2
    24    13    14    1
    25    14    15   ar
    26    15    16    1
    27    15    17   ar
    28    17    18   ar
    29    18    19   ar
    30    19    20   ar
    31    20    21    1
    32     4     5    1
    33     5     6    1
    34     4     7    1
    35     7     8    1
    36    34    24   ar
    37     6     1    1
    38    33    27   ar
    39     8     1    1
    40    36    32    1
    41    20    14   ar
    42    37    38    1
    43     9    10    1
@<TRIPOS>MOLECULE
*****
 38 43 0 0 0
SMALL
GASTEIGER

@<TRIPOS>ATOM
      1 C         138.7653  138.9908  164.1686 C.3     1  UNL1        0.0955
      2 C         138.1046  140.2991  163.8491 C.3     1  UNL1        0.0287
      3 C         137.5817  140.5575  162.4671 C.3     1  UNL1        0.0193
      4 C         137.7195  139.5078  161.4046 C.3     1  UNL1        0.0700
      5 C         138.3801  138.1995  161.7241 C.3     1  UNL1        0.0193
      6 C         138.9031  137.9410  163.1061 C.3     1  UNL1        0.0287
      7 C         138.0215  139.3203  162.1474 C.3     1  UNL1        0.1562
      8 O         138.4943  139.0866  163.3970 O.3     1  UNL1       -0.3571
      9 N         137.1966  139.7662  160.0227 N.3     1  UNL1       -0.2939
     10 H         136.4524  140.4578  160.1140 H       1  UNL1        0.1235
     11 C         138.1215  140.2641  158.9519 C.3     1  UNL1        0.0954
     12 C         139.3376  141.0605  159.3219 C.2     1  UNL1       -0.0089
     13 C         140.6408  140.3638  159.5793 C.2     1  UNL1        0.0013
     14 C         141.8568  141.1603  159.9493 C.ar    1  UNL1        0.0546
     15 C         141.9993  141.7103  161.3376 C.ar    1  UNL1        0.1422
     16 F         140.9257  141.4637  162.3558 F       1  UNL1       -0.2041
     17 C         143.2153  142.5068  161.7076 C.ar    1  UNL1        0.0298
     18 C         144.2888  142.7533  160.6893 C.ar    1  UNL1        0.0046
     19 C         144.1462  142.2034  159.3011 C.ar    1  UNL1        0.0298
     20 C         142.9302  141.4069  158.9311 C.ar    1  UNL1        0.1422
     21 F         142.7877  140.8570  157.5428 F       1  UNL1       -0.2041
     22 C         139.2882  138.7324  165.5505 C.3     1  UNL1        0.0604
     23 O         138.0813  140.0872  170.3454 O.2     1  UNL1       -0.2670
     24 C         139.3279  140.7553  169.8458 C.ar    1  UNL1        0.2611
     25 C         140.0756  141.7067  170.7323 C.ar    1  UNL1        0.0623
     26 C         141.3223  142.3748  170.2327 C.ar    1  UNL1        0.0254
     27 C         141.8212  142.0915  168.8468 C.ar    1  UNL1        0.0972
     28 N         143.0200  142.6075  168.0939 N.ar    1  UNL1       -0.2400
     29 C         143.3959  142.2280  166.6922 C.ar    1  UNL1        0.1282
     30 C         142.5469  141.2586  165.9244 C.ar    1  UNL1        0.1588
     31 F         142.9227  140.8792  164.5227 F       1  UNL1       -0.2027
     32 C         141.3221  140.6687  166.5583 C.ar    1  UNL1        0.0500
     33 C         141.0735  141.1402  167.9604 C.ar    1  UNL1        0.0806
     34 N         139.8268  140.4721  168.4599 N.ar    1  UNL1       -0.2915
     35 C         139.3050  139.5877  167.3665 C.3     1  UNL1        0.1402
     36 C         140.2291  139.7092  166.1913 C.3     1  UNL1        0.1335
     37 O         140.9565  139.6265  164.8821 O.3     1  UNL1       -0.3806
     38 H         140.4899  139.0152  164.2909 H       1  UNL1        0.2108
@<TRIPOS>BOND
     1    23    24    2
     2    24    25   ar
     3    25    26   ar
     4    26    27   ar
     5    27    28   ar
     6    28    29   ar
     7    29    30   ar
     8    30    31    1
     9    30    32   ar
    10    32    33   ar
    11    33    34   ar
    12    34    35    1
    13    35    36    1
    14    36    37    1
    15    36    22    1
    16    22     1    1
    17     1     2    1
    18     2     3    1
    19     3     4    1
    20     4     9    1
    21     9    11    1
    22    11    12    1
    23    12    13    2
    24    13    14    1
    25    14    15   ar
    26    15    16    1
    27    15    17   ar
    28    17    18   ar
    29    18    19   ar
    30    19    20   ar
    31    20    21    1
    32     4     5    1
    33     5     6    1
    34     4     7    1
    35     7     8    1
    36    34    24   ar
    37     6     1    1
    38    33    27   ar
    39     8     1    1
    40    36    32    1
    41    20    14   ar
    42    37    38    1
    43     9    10    1
@<TRIPOS>MOLECULE
*****
 38 43 0 0 0
SMALL
GASTEIGER

@<TRIPOS>ATOM
      1 C         141.4596  137.6437  162.2431 C.3     1  UNL1        0.0955
      2 C         141.8694  137.4121  163.6674 C.3     1  UNL1        0.0287
      3 C         140.8425  137.4556  164.7599 C.3     1  UNL1        0.0193
      4 C         139.4057  137.7307  164.4282 C.3     1  UNL1        0.0700
      5 C         138.9959  137.9623  163.0040 C.3     1  UNL1        0.0193
      6 C         140.0228  137.9188  161.9114 C.3     1  UNL1        0.0287
      7 C         139.9326  137.7167  163.7954 C.3     1  UNL1        0.1562
      8 O         140.8611  137.6774  162.8076 O.3     1  UNL1       -0.3571
      9 N         138.3788  137.7741  165.5207 N.3     1  UNL1       -0.2939
     10 H         138.6842  137.1167  166.2382 H       1  UNL1        0.1235
     11 C         138.0800  139.0681  166.2180 C.3     1  UNL1        0.0954
     12 C         138.9116  140.2835  165.9323 C.2     1  UNL1       -0.0089
     13 C         138.5709  141.1693  164.7707 C.2     1  UNL1        0.0013
     14 C         139.4025  142.3846  164.4852 C.ar    1  UNL1        0.0546
     15 C         138.7977  143.7521  164.6041 C.ar    1  UNL1        0.1422
     16 F         137.3614  143.9043  165.0086 F       1  UNL1       -0.2041
     17 C         139.6293  144.9674  164.3185 C.ar    1  UNL1        0.0298
     18 C         141.0657  144.8151  163.9140 C.ar    1  UNL1        0.0046
     19 C         141.6704  143.4476  163.7951 C.ar    1  UNL1        0.0298
     20 C         140.8388  142.2323  164.0807 C.ar    1  UNL1        0.1422
     21 F         141.4436  140.8648  163.9617 F       1  UNL1       -0.2041
     22 C         142.4865  137.6002  161.1507 C.3     1  UNL1        0.0604
     23 O         142.3667  137.8001  156.0293 O.2     1  UNL1       -0.2670
     24 C         142.9168  139.0500  156.6499 C.ar    1  UNL1        0.2611
     25 C         143.3602  140.1875  155.7786 C.ar    1  UNL1        0.0623
     26 C         143.9103  141.4374  156.3992 C.ar    1  UNL1        0.0254
     27 C         144.0170  141.5498  157.8911 C.ar    1  UNL1        0.0972
     28 N         144.5199  142.6626  158.7738 N.ar    1  UNL1       -0.2400
     29 C         144.5659  142.6302  160.2727 C.ar    1  UNL1        0.1282
     30 C         144.0852  141.4167  161.0118 C.ar    1  UNL1        0.1588
     31 F         144.1313  141.3843  162.5107 F       1  UNL1       -0.2027
     32 C         143.5585  140.2355  160.2520 C.ar    1  UNL1        0.0500
     33 C         143.5735  140.4122  158.7625 C.ar    1  UNL1        0.0806
     34 N         143.0234  139.1623  158.1419 N.ar    1  UNL1       -0.2915
     35 C         142.6684  138.2132  159.2478 C.3     1  UNL1        0.1402
     36 C         142.9991  138.8764  160.5519 C.3     1  UNL1        0.1335
     37 O         143.2227  139.2729  161.9812 O.3     1  UNL1       -0.3806
     38 H         142.9423  138.5506  162.5647 H       1  UNL1        0.2108
@<TRIPOS>BOND
     1    23    24    2
     2    24    25   ar
     3    25    26   ar
     4    26    27   ar
     5    27    28   ar
     6    28    29   ar
     7    29    30   ar
     8    30    31    1
     9    30    32   ar
    10    32    33   ar
    11    33    34   ar
    12    34    35    1
    13    35    36    1
    14    36    37    1
    15    36    22    1
    16    22     1    1
    17     1     2    1
    18     2     3    1
    19     3     4    1
    20     4     9    1
    21     9    11    1
    22    11    12    1
    23    12    13    2
    24    13    14    1
    25    14    15   ar
    26    15    16    1
    27    15    17   ar
    28    17    18   ar
    29    18    19   ar
    30    19    20   ar
    31    20    21    1
    32     4     5    1
    33     5     6    1
    34     4     7    1
    35     7     8    1
    36    34    24   ar
    37     6     1    1
    38    33    27   ar
    39     8     1    1
    40    36    32    1
    41    20    14   ar
    42    37    38    1
    43     9    10    1
