@<TRIPOS>MOLECULE
*****
 19 22 0 0 0
SMALL
GASTEIGER

@<TRIPOS>ATOM
      1 CL        137.2487  139.9100  160.4093 Cl      1  UNL1       -0.0805
      2 C         137.7846  139.4455  161.7311 C.ar    1  UNL1        0.0799
      3 C         138.2050  138.0168  161.9097 C.ar    1  UNL1        0.1121
      4 N         138.7409  137.5523  163.2315 N.ar    1  UNL1       -0.2215
      5 C         138.8565  138.5166  164.3746 C.ar    1  UNL1        0.2016
      6 N         139.3440  138.3495  165.7833 N.ar    1  UNL1       -0.1754
      7 C         139.2250  139.6751  166.4753 C.ar    1  UNL1        0.2938
      8 O         138.6638  140.6613  165.4943 O.2     1  UNL1       -0.4221
      9 C         138.4360  139.9453  164.1960 C.ar    1  UNL1        0.1849
     10 C         137.9001  140.4098  162.8742 C.ar    1  UNL1        0.0537
     11 N         139.7766  140.0983  168.5626 N.pl3   1  UNL1       -0.2637
     12 C         139.0953  140.2193  169.1262 C.3     1  UNL1        0.1123
     13 C         139.0684  140.3813  169.9161 C.3     1  UNL1        0.0939
     14 N         139.8499  140.5700  170.8678 N.3     1  UNL1       -0.2711
     15 C         140.1387  140.4130  170.1130 C.3     1  UNL1        0.0738
     16 C         140.6915  140.1601  168.9005 C.3     1  UNL1        0.0372
     17 C         141.0725  140.0106  168.1860 C.3     1  UNL1        0.0798
     18 C         141.9531  140.2475  169.3770 C.3     1  UNL1        0.0372
     19 C         141.3418  140.5272  170.7178 C.3     1  UNL1        0.0738
@<TRIPOS>BOND
     1     1     2    1
     2     2     3   ar
     3     3     4   ar
     4     4     5   ar
     5     5     6   ar
     6     6     7   ar
     7     7    11    1
     8    11    12    1
     9    12    13    1
    10    13    14    1
    11    14    15    1
    12    15    16    1
    13    16    17    1
    14    17    18    1
    15    18    19    1
    16     7     8   ar
    17     8     9   ar
    18     9    10   ar
    19    10     2   ar
    20     9     5   ar
    21    17    11    1
    22    19    14    1
@<TRIPOS>MOLECULE
*****
 19 22 0 0 0
SMALL
GASTEIGER

@<TRIPOS>ATOM
      1 CL        137.7270  138.1304  161.8347 Cl      1  UNL1       -0.0805
      2 C         138.1329  139.2994  162.6824 C.ar    1  UNL1        0.0799
      3 C         137.8699  140.6976  162.2073 C.ar    1  UNL1        0.1121
      4 N         138.2758  141.8667  163.0550 N.ar    1  UNL1       -0.2215
      5 C         138.9448  141.6375  164.3778 C.ar    1  UNL1        0.2016
      6 N         139.4538  142.5855  165.4228 N.ar    1  UNL1       -0.1754
      7 C         140.0314  141.7733  166.5438 C.ar    1  UNL1        0.2938
      8 O         139.8794  140.3232  166.1916 O.2     1  UNL1       -0.4221
      9 C         139.2078  140.2393  164.8529 C.ar    1  UNL1        0.1849
     10 C         138.8019  139.0702  164.0052 C.ar    1  UNL1        0.0537
     11 N         140.9416  142.5691  168.3818 N.pl3   1  UNL1       -0.2637
     12 C         140.4198  143.1005  168.8736 C.3     1  UNL1        0.1123
     13 C         140.5464  143.4914  169.5679 C.3     1  UNL1        0.0939
     14 N         141.4515  143.6523  170.4088 N.3     1  UNL1       -0.2711
     15 C         141.5737  143.1784  169.7468 C.3     1  UNL1        0.0738
     16 C         141.8523  142.3833  168.6838 C.3     1  UNL1        0.0372
     17 C         142.0675  141.8937  168.0578 C.3     1  UNL1        0.0798
     18 C         143.1100  142.1321  169.1095 C.3     1  UNL1        0.0372
     19 C         142.8020  143.0114  170.2851 C.3     1  UNL1        0.0738
@<TRIPOS>BOND
     1     1     2    1
     2     2     3   ar
     3     3     4   ar
     4     4     5   ar
     5     5     6   ar
     6     6     7   ar
     7     7    11    1
     8    11    12    1
     9    12    13    1
    10    13    14    1
    11    14    15    1
    12    15    16    1
    13    16    17    1
    14    17    18    1
    15    18    19    1
    16     7     8   ar
    17     8     9   ar
    18     9    10   ar
    19    10     2   ar
    20     9     5   ar
    21    17    11    1
    22    19    14    1
@<TRIPOS>MOLECULE
*****
 19 22 0 0 0
SMALL
GASTEIGER

@<TRIPOS>ATOM
      1 CL        143.7247  137.7216  161.5433 Cl      1  UNL1       -0.0805
      2 C         142.6708  138.0726  162.5514 C.ar    1  UNL1        0.0799
      3 C         141.2518  137.6369  162.3357 C.ar    1  UNL1        0.1121
      4 N         140.1980  137.9878  163.3437 N.ar    1  UNL1       -0.2215
      5 C         140.5631  138.7746  164.5675 C.ar    1  UNL1        0.2016
      6 N         139.7464  139.2647  165.7263 N.ar    1  UNL1       -0.1754
      7 C         140.6607  140.0034  166.6583 C.ar    1  UNL1        0.2938
      8 O         142.0424  139.9698  166.0754 O.2     1  UNL1       -0.4221
      9 C         141.9820  139.2104  164.7832 C.ar    1  UNL1        0.1849
     10 C         143.0359  138.8594  163.7752 C.ar    1  UNL1        0.0537
     11 N         140.0774  140.9668  168.5482 N.pl3   1  UNL1       -0.2637
     12 C         139.6291  140.4519  169.1230 C.3     1  UNL1        0.1123
     13 C         139.3259  140.5966  169.8565 C.3     1  UNL1        0.0939
     14 N         139.2456  141.5306  170.6771 N.3     1  UNL1       -0.2711
     15 C         139.6276  141.6380  169.9557 C.3     1  UNL1        0.0738
     16 C         140.2722  141.8934  168.7900 C.3     1  UNL1        0.0372
     17 C         140.6714  142.0956  168.0988 C.3     1  UNL1        0.0798
     18 C         140.5368  143.1734  169.1332 C.3     1  UNL1        0.0372
     19 C         139.8239  142.8910  170.4223 C.3     1  UNL1        0.0738
@<TRIPOS>BOND
     1     1     2    1
     2     2     3   ar
     3     3     4   ar
     4     4     5   ar
     5     5     6   ar
     6     6     7   ar
     7     7    11    1
     8    11    12    1
     9    12    13    1
    10    13    14    1
    11    14    15    1
    12    15    16    1
    13    16    17    1
    14    17    18    1
    15    18    19    1
    16     7     8   ar
    17     8     9   ar
    18     9    10   ar
    19    10     2   ar
    20     9     5   ar
    21    17    11    1
    22    19    14    1
@<TRIPOS>MOLECULE
*****
 19 22 0 0 0
SMALL
GASTEIGER

@<TRIPOS>ATOM
      1 CL        139.6054  146.2231  161.8531 Cl      1  UNL1       -0.0805
      2 C         139.3948  145.0148  162.7167 C.ar    1  UNL1        0.0799
      3 C         138.3724  143.9869  162.3320 C.ar    1  UNL1        0.1121
      4 N         138.1619  142.7787  163.1955 N.ar    1  UNL1       -0.2215
      5 C         138.9737  142.5983  164.4438 C.ar    1  UNL1        0.2016
      6 N         138.9880  141.5182  165.4845 N.ar    1  UNL1       -0.1754
      7 C         140.0193  141.8785  166.5125 C.ar    1  UNL1        0.2938
      8 O         140.6424  143.1813  166.1071 O.2     1  UNL1       -0.4221
      9 C         139.9962  143.6262  164.8285 C.ar    1  UNL1        0.1849
     10 C         140.2067  144.8344  163.9650 C.ar    1  UNL1        0.0537
     11 N         140.5285  140.7026  168.3008 N.pl3   1  UNL1       -0.2637
     12 C         139.8942  140.6556  168.9269 C.3     1  UNL1        0.1123
     13 C         139.8679  140.2874  169.6442 C.3     1  UNL1        0.0939
     14 N         140.5927  139.5785  170.3683 N.3     1  UNL1       -0.2711
     15 C         140.8625  139.8446  169.6374 C.3     1  UNL1        0.0738
     16 C         141.3784  140.2432  168.4479 C.3     1  UNL1        0.0372
     17 C         141.7338  140.4600  167.7376 C.3     1  UNL1        0.0798
     18 C         142.5503  139.6047  168.6604 C.3     1  UNL1        0.0372
     19 C         141.9798  139.1639  169.9757 C.3     1  UNL1        0.0738
@<TRIPOS>BOND
     1     1     2    1
     2     2     3   ar
     3     3     4   ar
     4     4     5   ar
     5     5     6   ar
     6     6     7   ar
     7     7    11    1
     8    11    12    1
     9    12    13    1
    10    13    14    1
    11    14    15    1
    12    15    16    1
    13    16    17    1
    14    17    18    1
    15    18    19    1
    16     7     8   ar
    17     8     9   ar
    18     9    10   ar
    19    10     2   ar
    20     9     5   ar
    21    17    11    1
    22    19    14    1
@<TRIPOS>MOLECULE
*****
 19 22 0 0 0
SMALL
GASTEIGER

@<TRIPOS>ATOM
      1 CL        142.2810  141.6690  171.0578 Cl      1  UNL1       -0.0805
      2 C         141.2798  141.0590  170.1221 C.ar    1  UNL1        0.0799
      3 C         139.9992  140.4924  170.6595 C.ar    1  UNL1        0.1121
      4 N         138.9980  139.8824  169.7238 N.ar    1  UNL1       -0.2215
      5 C         139.2775  139.8390  168.2507 C.ar    1  UNL1        0.2016
      6 N         138.4855  139.3052  167.0941 N.ar    1  UNL1       -0.1754
      7 C         139.2766  139.5419  165.8419 C.ar    1  UNL1        0.2938
      8 O         140.5576  140.2220  166.2246 O.2     1  UNL1       -0.4221
      9 C         140.5581  140.4057  167.7134 C.ar    1  UNL1        0.1849
     10 C         141.5593  141.0156  168.6491 C.ar    1  UNL1        0.0537
     11 N         138.6655  138.9887  163.8021 N.pl3   1  UNL1       -0.2637
     12 C         138.8209  138.1417  163.5677 C.3     1  UNL1        0.1123
     13 C         138.6806  137.7344  162.8856 C.3     1  UNL1        0.0939
     14 N         138.1974  137.9274  161.7536 N.3     1  UNL1       -0.2711
     15 C         138.2299  138.5377  162.3052 C.3     1  UNL1        0.0738
     16 C         138.2480  139.5928  163.1574 C.3     1  UNL1        0.0372
     17 C         138.2372  140.2609  163.6384 C.3     1  UNL1        0.0798
     18 C         137.6702  140.4207  162.2590 C.3     1  UNL1        0.0372
     19 C         137.6502  139.2539  161.3166 C.3     1  UNL1        0.0738
@<TRIPOS>BOND
     1     1     2    1
     2     2     3   ar
     3     3     4   ar
     4     4     5   ar
     5     5     6   ar
     6     6     7   ar
     7     7    11    1
     8    11    12    1
     9    12    13    1
    10    13    14    1
    11    14    15    1
    12    15    16    1
    13    16    17    1
    14    17    18    1
    15    18    19    1
    16     7     8   ar
    17     8     9   ar
    18     9    10   ar
    19    10     2   ar
    20     9     5   ar
    21    17    11    1
    22    19    14    1
@<TRIPOS>MOLECULE
*****
 19 22 0 0 0
SMALL
GASTEIGER

@<TRIPOS>ATOM
      1 CL        142.6477  138.4988  170.0083 Cl      1  UNL1       -0.0805
      2 C         141.9838  139.7180  169.4402 C.ar    1  UNL1        0.0799
      3 C         141.4420  140.7734  170.3580 C.ar    1  UNL1        0.1121
      4 N         140.7781  141.9926  169.7899 N.ar    1  UNL1       -0.2215
      5 C         140.6559  142.1564  168.3039 C.ar    1  UNL1        0.2016
      6 N         140.0569  143.2418  167.4596 N.ar    1  UNL1       -0.1754
      7 C         140.2285  142.8573  166.0199 C.ar    1  UNL1        0.2938
      8 O         140.9335  141.5341  165.9744 O.2     1  UNL1       -0.4221
      9 C         141.1977  141.1009  167.3861 C.ar    1  UNL1        0.1849
     10 C         141.8616  139.8817  167.9542 C.ar    1  UNL1        0.0537
     11 N         139.5628  144.0284  164.2805 N.pl3   1  UNL1       -0.2637
     12 C         138.6956  143.9645  164.0796 C.3     1  UNL1        0.1123
     13 C         138.2487  144.2997  163.4976 C.3     1  UNL1        0.0939
     14 N         138.3840  145.0764  162.5329 N.3     1  UNL1       -0.2711
     15 C         139.0290  144.8764  163.0039 C.3     1  UNL1        0.0738
     16 C         140.1387  144.5960  163.7316 C.3     1  UNL1        0.0372
     17 C         140.8383  144.4560  164.1425 C.3     1  UNL1        0.0798
     18 C         140.9271  145.3833  162.9669 C.3     1  UNL1        0.0372
     19 C         139.6999  145.6935  162.1621 C.3     1  UNL1        0.0738
@<TRIPOS>BOND
     1     1     2    1
     2     2     3   ar
     3     3     4   ar
     4     4     5   ar
     5     5     6   ar
     6     6     7   ar
     7     7    11    1
     8    11    12    1
     9    12    13    1
    10    13    14    1
    11    14    15    1
    12    15    16    1
    13    16    17    1
    14    17    18    1
    15    18    19    1
    16     7     8   ar
    17     8     9   ar
    18     9    10   ar
    19    10     2   ar
    20     9     5   ar
    21    17    11    1
    22    19    14    1
@<TRIPOS>MOLECULE
*****
 19 22 0 0 0
SMALL
GASTEIGER

@<TRIPOS>ATOM
      1 CL        142.8180  143.1953  170.3823 Cl      1  UNL1       -0.0805
      2 C         142.7992  141.9970  169.4803 C.ar    1  UNL1        0.0799
      3 C         142.9684  140.6222  170.0559 C.ar    1  UNL1        0.1121
      4 N         142.9496  139.4239  169.1539 N.ar    1  UNL1       -0.2215
      5 C         142.7616  139.6003  167.6763 C.ar    1  UNL1        0.2016
      6 N         142.7003  138.6143  166.5475 N.ar    1  UNL1       -0.1754
      7 C         142.4932  139.3797  165.2742 C.ar    1  UNL1        0.2938
      8 O         142.4265  140.8387  165.6160 O.2     1  UNL1       -0.4221
      9 C         142.5924  140.9750  167.1006 C.ar    1  UNL1        0.1849
     10 C         142.6112  142.1734  168.0026 C.ar    1  UNL1        0.0537
     11 N         142.3181  138.5143  163.2591 N.pl3   1  UNL1       -0.2637
     12 C         141.5040  138.2296  163.0294 C.3     1  UNL1        0.1123
     13 C         141.2202  137.8877  162.3561 C.3     1  UNL1        0.0939
     14 N         141.6297  137.5256  161.2366 N.3     1  UNL1       -0.2711
     15 C         142.1440  137.8686  161.7804 C.3     1  UNL1        0.0738
     16 C         143.0522  138.4250  162.6202 C.3     1  UNL1        0.0372
     17 C         143.6383  138.7562  163.0942 C.3     1  UNL1        0.0798
     18 C         144.0609  138.2973  161.7301 C.3     1  UNL1        0.0372
     19 C         143.0566  137.6820  160.8013 C.3     1  UNL1        0.0738
@<TRIPOS>BOND
     1     1     2    1
     2     2     3   ar
     3     3     4   ar
     4     4     5   ar
     5     5     6   ar
     6     6     7   ar
     7     7    11    1
     8    11    12    1
     9    12    13    1
    10    13    14    1
    11    14    15    1
    12    15    16    1
    13    16    17    1
    14    17    18    1
    15    18    19    1
    16     7     8   ar
    17     8     9   ar
    18     9    10   ar
    19    10     2   ar
    20     9     5   ar
    21    17    11    1
    22    19    14    1
@<TRIPOS>MOLECULE
*****
 19 22 0 0 0
SMALL
GASTEIGER

@<TRIPOS>ATOM
      1 CL        143.9925  140.2948  161.0472 Cl      1  UNL1       -0.0805
      2 C         143.7124  140.1349  162.5121 C.ar    1  UNL1        0.0799
      3 C         144.4699  139.1184  163.3139 C.ar    1  UNL1        0.1121
      4 N         144.1899  138.9584  164.7788 N.ar    1  UNL1       -0.2215
      5 C         143.1523  139.8149  165.4419 C.ar    1  UNL1        0.2016
      6 N         142.6629  139.8833  166.8582 N.ar    1  UNL1       -0.1754
      7 C         141.6029  140.9421  166.9317 C.ar    1  UNL1        0.2938
      8 O         141.4372  141.5281  165.5609 O.2     1  UNL1       -0.4221
      9 C         142.3948  140.8314  164.6402 C.ar    1  UNL1        0.1849
     10 C         142.6749  140.9914  163.1753 C.ar    1  UNL1        0.0537
     11 N         140.4871  141.5320  168.7338 N.pl3   1  UNL1       -0.2637
     12 C         139.9266  140.9189  169.0601 C.3     1  UNL1        0.1123
     13 C         139.4308  140.9230  169.6965 C.3     1  UNL1        0.0939
     14 N         139.0876  141.6849  170.6205 N.3     1  UNL1       -0.2711
     15 C         139.6435  141.9258  170.0631 C.3     1  UNL1        0.0738
     16 C         140.5643  142.3954  169.1849 C.3     1  UNL1        0.0372
     17 C         141.1241  142.7236  168.6781 C.3     1  UNL1        0.0798
     18 C         140.6642  143.5865  169.8155 C.3     1  UNL1        0.0372
     19 C         139.6459  143.0671  170.7867 C.3     1  UNL1        0.0738
@<TRIPOS>BOND
     1     1     2    1
     2     2     3   ar
     3     3     4   ar
     4     4     5   ar
     5     5     6   ar
     6     6     7   ar
     7     7    11    1
     8    11    12    1
     9    12    13    1
    10    13    14    1
    11    14    15    1
    12    15    16    1
    13    16    17    1
    14    17    18    1
    15    18    19    1
    16     7     8   ar
    17     8     9   ar
    18     9    10   ar
    19    10     2   ar
    20     9     5   ar
    21    17    11    1
    22    19    14    1
@<TRIPOS>MOLECULE
*****
 19 22 0 0 0
SMALL
GASTEIGER

@<TRIPOS>ATOM
      1 CL        138.1297  139.9726  170.2000 Cl      1  UNL1       -0.0805
      2 C         139.3450  140.5769  169.5613 C.ar    1  UNL1        0.0799
      3 C         140.2009  141.5353  170.3352 C.ar    1  UNL1        0.1121
      4 N         141.4161  142.1395  169.6965 N.ar    1  UNL1       -0.2215
      5 C         141.7756  141.7855  168.2839 C.ar    1  UNL1        0.2016
      6 N         142.9047  142.2189  167.3967 N.ar    1  UNL1       -0.1754
      7 C         142.7466  141.5285  166.0744 C.ar    1  UNL1        0.2938
      8 O         141.5198  140.6682  166.1445 O.2     1  UNL1       -0.4221
      9 C         140.9197  140.8271  167.5100 C.ar    1  UNL1        0.1849
     10 C         139.7044  140.2228  168.1487 C.ar    1  UNL1        0.0537
     11 N         144.0801  141.7403  164.3374 N.pl3   1  UNL1       -0.2637
     12 C         144.8501  141.2914  164.3834 C.3     1  UNL1        0.1123
     13 C         145.4710  141.2280  163.8722 C.3     1  UNL1        0.0939
     14 N         145.8173  141.6476  162.7515 N.3     1  UNL1       -0.2711
     15 C         145.0940  141.8687  163.0767 C.3     1  UNL1        0.0738
     16 C         143.8883  142.2779  163.5442 C.3     1  UNL1        0.0372
     17 C         143.1506  142.5527  163.7853 C.3     1  UNL1        0.0798
     18 C         143.6321  143.0185  162.4432 C.3     1  UNL1        0.0372
     19 C         144.9654  142.5660  161.9263 C.3     1  UNL1        0.0738
@<TRIPOS>BOND
     1     1     2    1
     2     2     3   ar
     3     3     4   ar
     4     4     5   ar
     5     5     6   ar
     6     6     7   ar
     7     7    11    1
     8    11    12    1
     9    12    13    1
    10    13    14    1
    11    14    15    1
    12    15    16    1
    13    16    17    1
    14    17    18    1
    15    18    19    1
    16     7     8   ar
    17     8     9   ar
    18     9    10   ar
    19    10     2   ar
    20     9     5   ar
    21    17    11    1
    22    19    14    1
