@<TRIPOS>MOLECULE
*****
 34 38 0 0 0
SMALL
GASTEIGER

@<TRIPOS>ATOM
      1 C         137.7657  142.8591  163.1950 C.3     1  UNL1        0.2355
      2 O         137.7579  142.5416  161.7291 O.3     1  UNL1       -0.3290
      3 C         137.7917  141.1138  161.2707 C.3     1  UNL1        0.1629
      4 C         137.8332  140.0034  162.2784 C.3     1  UNL1        0.1144
      5 C         137.8409  140.3209  163.7444 C.3     1  UNL1        0.1629
      6 O         137.8072  141.7488  164.2027 O.3     1  UNL1       -0.3290
      7 N         137.8669  138.5756  161.8200 N.3     1  UNL1       -0.2908
      8 H         137.2469  138.5108  161.0127 H       1  UNL1        0.1237
      9 C         139.1684  137.9475  161.4180 C.3     1  UNL1        0.0958
     10 C         140.4038  138.1953  162.2317 C.ar    1  UNL1       -0.0032
     11 C         140.6168  137.4523  163.5173 C.ar    1  UNL1        0.0004
     12 C         141.8522  137.7001  164.3310 C.ar    1  UNL1        0.0398
     13 C         142.8747  138.6911  163.8593 C.ar    1  UNL1        0.1724
     14 C         142.6618  139.4341  162.5738 C.ar    1  UNL1        0.1721
     15 C         141.4263  139.1863  161.7600 C.ar    1  UNL1        0.0371
     16 O         143.6843  140.4250  162.1021 O.3     1  UNL1       -0.4684
     17 C         144.9197  140.6729  162.9158 C.3     1  UNL1        0.2526
     18 C         145.1327  139.9299  164.2014 C.3     1  UNL1        0.2526
     19 O         144.1102  138.9389  164.6731 O.3     1  UNL1       -0.4684
     20 C         137.7320  144.2870  163.6534 C.3     1  UNL1        0.0661
     21 C         138.7957  144.8038  164.5762 C.3     1  UNL1        0.0355
     22 C         140.9545  141.8988  167.2502 C.ar    1  UNL1        0.2250
     23 C         142.3953  141.5705  166.9925 C.ar    1  UNL1        0.0593
     24 C         143.1164  142.2106  165.8435 C.ar    1  UNL1        0.0254
     25 C         142.3968  143.1789  164.9522 C.ar    1  UNL1        0.0990
     26 N         143.1180  143.8189  163.8031 N.ar    1  UNL1       -0.2400
     27 C         142.3984  144.7872  162.9118 C.ar    1  UNL1        0.1281
     28 C         140.9576  145.1156  163.1695 C.ar    1  UNL1        0.1567
     29 F         140.2380  146.0839  162.2781 F       1  UNL1       -0.2028
     30 C         140.2364  144.4755  164.3185 C.ar    1  UNL1        0.0262
     31 C         140.9561  143.5071  165.2099 C.ar    1  UNL1        0.1002
     32 N         140.2349  142.8671  166.3589 N.ar    1  UNL1       -0.2104
     33 C         139.4203  140.0180  168.1769 C.3     1  UNL1        0.2542
     34 O         140.2334  141.2587  168.3993 O.3     1  UNL1       -0.4561
@<TRIPOS>BOND
     1    33    34    1
     2    34    22    1
     3    22    23   ar
     4    23    24   ar
     5    24    25   ar
     6    25    26   ar
     7    26    27   ar
     8    27    28   ar
     9    28    29    1
    10    28    30   ar
    11    30    21    1
    12    21    20    1
    13     1    20    1
    14     1     2    1
    15     2     3    1
    16     3     4    1
    17     4     7    1
    18     7     9    1
    19     9    10    1
    20    10    11   ar
    21    11    12   ar
    22    12    13   ar
    23    13    14   ar
    24    14    15   ar
    25    14    16    1
    26    16    17    1
    27    17    18    1
    28    18    19    1
    29     4     5    1
    30     5     6    1
    31    30    31   ar
    32    31    32   ar
    33    32    22   ar
    34    31    25   ar
    35     6     1    1
    36    15    10   ar
    37    19    13    1
    38     7     8    1
@<TRIPOS>MOLECULE
*****
 34 38 0 0 0
SMALL
GASTEIGER

@<TRIPOS>ATOM
      1 C         142.0398  138.0734  164.0792 C.3     1  UNL1        0.2355
      2 O         142.3820  138.2974  162.6360 O.3     1  UNL1       -0.3290
      3 C         143.5693  139.1371  162.2684 C.3     1  UNL1        0.1629
      4 C         144.4145  139.7528  163.3439 C.3     1  UNL1        0.1144
      5 C         144.0723  139.5288  164.7870 C.3     1  UNL1        0.1629
      6 O         142.8849  138.6890  165.1547 O.3     1  UNL1       -0.3290
      7 N         145.6018  140.5925  162.9762 N.3     1  UNL1       -0.2908
      8 H         145.6646  140.5839  161.9582 H       1  UNL1        0.1237
      9 C         145.6649  142.0294  163.4019 C.3     1  UNL1        0.0958
     10 C         144.4622  142.9117  163.2448 C.ar    1  UNL1       -0.0032
     11 C         143.8114  143.5151  164.4542 C.ar    1  UNL1        0.0004
     12 C         142.6086  144.3974  164.2970 C.ar    1  UNL1        0.0398
     13 C         142.0565  144.6764  162.9305 C.ar    1  UNL1        0.1724
     14 C         142.7072  144.0732  161.7211 C.ar    1  UNL1        0.1721
     15 C         143.9101  143.1908  161.8782 C.ar    1  UNL1        0.0371
     16 O         142.1552  144.3522  160.3546 O.3     1  UNL1       -0.4684
     17 C         140.9524  145.2346  160.1974 C.3     1  UNL1        0.2526
     18 C         140.3016  145.8379  161.4068 C.3     1  UNL1        0.2526
     19 O         140.8536  145.5588  162.7733 O.3     1  UNL1       -0.4684
     20 C         140.8525  137.2337  164.4468 C.3     1  UNL1        0.0661
     21 C         139.5910  137.8880  164.9272 C.3     1  UNL1        0.0355
     22 C         140.2402  141.9986  166.6394 C.ar    1  UNL1        0.2250
     23 C         139.7007  143.2022  165.9252 C.ar    1  UNL1        0.0593
     24 C         138.9448  143.0358  164.6404 C.ar    1  UNL1        0.0254
     25 C         138.7284  141.6656  164.0696 C.ar    1  UNL1        0.0990
     26 N         137.9725  141.4991  162.7847 N.ar    1  UNL1       -0.2400
     27 C         137.7561  140.1290  162.2140 C.ar    1  UNL1        0.1281
     28 C         138.2956  138.9252  162.9282 C.ar    1  UNL1        0.1567
     29 F         138.0792  137.5550  162.3574 F       1  UNL1       -0.2028
     30 C         139.0515  139.0917  164.2130 C.ar    1  UNL1        0.0262
     31 C         139.2679  140.4619  164.7838 C.ar    1  UNL1        0.1002
     32 N         140.0238  140.6284  166.0686 N.ar    1  UNL1       -0.2104
     33 C         140.4929  143.1118  168.9732 C.3     1  UNL1        0.2542
     34 O         140.9961  142.1650  167.9242 O.3     1  UNL1       -0.4561
@<TRIPOS>BOND
     1    33    34    1
     2    34    22    1
     3    22    23   ar
     4    23    24   ar
     5    24    25   ar
     6    25    26   ar
     7    26    27   ar
     8    27    28   ar
     9    28    29    1
    10    28    30   ar
    11    30    21    1
    12    21    20    1
    13     1    20    1
    14     1     2    1
    15     2     3    1
    16     3     4    1
    17     4     7    1
    18     7     9    1
    19     9    10    1
    20    10    11   ar
    21    11    12   ar
    22    12    13   ar
    23    13    14   ar
    24    14    15   ar
    25    14    16    1
    26    16    17    1
    27    17    18    1
    28    18    19    1
    29     4     5    1
    30     5     6    1
    31    30    31   ar
    32    31    32   ar
    33    32    22   ar
    34    31    25   ar
    35     6     1    1
    36    15    10   ar
    37    19    13    1
    38     7     8    1
@<TRIPOS>MOLECULE
*****
 34 38 0 0 0
SMALL
GASTEIGER

@<TRIPOS>ATOM
      1 C         137.9170  139.9211  161.9444 C.3     1  UNL1        0.2355
      2 O         137.3340  140.5552  163.1725 O.3     1  UNL1       -0.3290
      3 C         137.3254  142.0485  163.3134 C.3     1  UNL1        0.1629
      4 C         137.8999  142.9078  162.2263 C.3     1  UNL1        0.1144
      5 C         138.4828  142.2737  160.9983 C.3     1  UNL1        0.1629
      6 O         138.4914  140.7803  160.8574 O.3     1  UNL1       -0.3290
      7 N         137.8913  144.4011  162.3673 N.3     1  UNL1       -0.2908
      8 H         136.9657  144.6593  162.7094 H       1  UNL1        0.1237
      9 C         138.8876  145.0756  163.2631 C.3     1  UNL1        0.0958
     10 C         140.1144  144.3375  163.7103 C.ar    1  UNL1       -0.0032
     11 C         140.1528  143.6995  165.0674 C.ar    1  UNL1        0.0004
     12 C         141.3796  142.9613  165.5146 C.ar    1  UNL1        0.0398
     13 C         142.5680  142.8612  164.6049 C.ar    1  UNL1        0.1724
     14 C         142.5297  143.4992  163.2479 C.ar    1  UNL1        0.1721
     15 C         141.3028  144.2373  162.8006 C.ar    1  UNL1        0.0371
     16 O         143.7181  143.3990  162.3382 O.3     1  UNL1       -0.4684
     17 C         144.9449  142.6609  162.7855 C.3     1  UNL1        0.2526
     18 C         144.9833  142.0228  164.1426 C.3     1  UNL1        0.2526
     19 O         143.7948  142.1230  165.0523 O.3     1  UNL1       -0.4684
     20 C         137.9256  138.4278  161.8035 C.3     1  UNL1        0.0661
     21 C         138.5998  137.5803  162.8414 C.3     1  UNL1        0.0355
     22 C         142.7216  137.7469  161.0433 C.ar    1  UNL1        0.2250
     23 C         143.8649  138.3034  161.8388 C.ar    1  UNL1        0.0593
     24 C         143.6344  138.8044  163.2338 C.ar    1  UNL1        0.0254
     25 C         142.2605  138.7489  163.8332 C.ar    1  UNL1        0.0990
     26 N         142.0300  139.2498  165.2281 N.ar    1  UNL1       -0.2400
     27 C         140.6561  139.1943  165.8275 C.ar    1  UNL1        0.1281
     28 C         139.5127  138.6378  165.0319 C.ar    1  UNL1        0.1567
     29 F         138.1388  138.5823  165.6313 F       1  UNL1       -0.2028
     30 C         139.7432  138.1368  163.6370 C.ar    1  UNL1        0.0262
     31 C         141.1172  138.1924  163.0376 C.ar    1  UNL1        0.1002
     32 N         141.3477  137.6914  161.6427 N.ar    1  UNL1       -0.2104
     33 C         142.4694  138.0458  158.4748 C.3     1  UNL1        0.2542
     34 O         142.9521  137.2459  159.6483 O.3     1  UNL1       -0.4561
@<TRIPOS>BOND
     1    33    34    1
     2    34    22    1
     3    22    23   ar
     4    23    24   ar
     5    24    25   ar
     6    25    26   ar
     7    26    27   ar
     8    27    28   ar
     9    28    29    1
    10    28    30   ar
    11    30    21    1
    12    21    20    1
    13     1    20    1
    14     1     2    1
    15     2     3    1
    16     3     4    1
    17     4     7    1
    18     7     9    1
    19     9    10    1
    20    10    11   ar
    21    11    12   ar
    22    12    13   ar
    23    13    14   ar
    24    14    15   ar
    25    14    16    1
    26    16    17    1
    27    17    18    1
    28    18    19    1
    29     4     5    1
    30     5     6    1
    31    30    31   ar
    32    31    32   ar
    33    32    22   ar
    34    31    25   ar
    35     6     1    1
    36    15    10   ar
    37    19    13    1
    38     7     8    1
@<TRIPOS>MOLECULE
*****
 34 38 0 0 0
SMALL
GASTEIGER

@<TRIPOS>ATOM
      1 C         143.0427  144.0312  162.4078 C.3     1  UNL1        0.2355
      2 O         142.4716  144.7874  163.5705 O.3     1  UNL1       -0.3290
      3 C         141.0253  145.1851  163.5690 C.3     1  UNL1        0.1629
      4 C         140.1501  144.8265  162.4048 C.3     1  UNL1        0.1144
      5 C         140.7212  144.0703  161.2420 C.3     1  UNL1        0.1629
      6 O         142.1676  143.6726  161.2436 O.3     1  UNL1       -0.3290
      7 N         138.7038  145.2241  162.4033 N.3     1  UNL1       -0.2908
      8 H         138.4061  145.2486  161.4280 H       1  UNL1        0.1237
      9 C         137.6968  144.3937  163.1426 C.3     1  UNL1        0.0958
     10 C         137.9783  142.9474  163.4230 C.ar    1  UNL1       -0.0032
     11 C         138.4724  142.5280  164.7759 C.ar    1  UNL1        0.0004
     12 C         138.7538  141.0816  165.0563 C.ar    1  UNL1        0.0398
     13 C         138.5412  140.0545  163.9840 C.ar    1  UNL1        0.1724
     14 C         138.0472  140.4738  162.6312 C.ar    1  UNL1        0.1721
     15 C         137.7657  141.9203  162.3507 C.ar    1  UNL1        0.0371
     16 O         137.8345  139.4467  161.5589 O.3     1  UNL1       -0.4684
     17 C         138.1160  138.0003  161.8394 C.3     1  UNL1        0.2526
     18 C         138.6101  137.5810  163.1922 C.3     1  UNL1        0.2526
     19 O         138.8227  138.6081  164.2645 O.3     1  UNL1       -0.4684
     20 C         144.4890  143.6335  162.4093 C.3     1  UNL1        0.0661
     21 C         145.0019  142.6734  163.4414 C.3     1  UNL1        0.0355
     22 C         143.5769  139.0694  161.1543 C.ar    1  UNL1        0.2250
     23 C         142.6401  138.0928  161.8013 C.ar    1  UNL1        0.0593
     24 C         142.1783  138.3175  163.2106 C.ar    1  UNL1        0.0254
     25 C         142.6532  139.5188  163.9730 C.ar    1  UNL1        0.0990
     26 N         142.1914  139.7435  165.3823 N.ar    1  UNL1       -0.2400
     27 C         142.6664  140.9448  166.1447 C.ar    1  UNL1        0.1281
     28 C         143.6032  141.9215  165.4977 C.ar    1  UNL1        0.1567
     29 F         144.0782  143.1228  166.2601 F       1  UNL1       -0.2028
     30 C         144.0651  141.6968  164.0884 C.ar    1  UNL1        0.0262
     31 C         143.5900  140.4954  163.3260 C.ar    1  UNL1        0.1002
     32 N         144.0519  140.2707  161.9167 N.ar    1  UNL1       -0.2104
     33 C         143.4032  139.6031  158.6176 C.3     1  UNL1        0.2542
     34 O         144.0387  138.8447  159.7450 O.3     1  UNL1       -0.4561
@<TRIPOS>BOND
     1    33    34    1
     2    34    22    1
     3    22    23   ar
     4    23    24   ar
     5    24    25   ar
     6    25    26   ar
     7    26    27   ar
     8    27    28   ar
     9    28    29    1
    10    28    30   ar
    11    30    21    1
    12    21    20    1
    13     1    20    1
    14     1     2    1
    15     2     3    1
    16     3     4    1
    17     4     7    1
    18     7     9    1
    19     9    10    1
    20    10    11   ar
    21    11    12   ar
    22    12    13   ar
    23    13    14   ar
    24    14    15   ar
    25    14    16    1
    26    16    17    1
    27    17    18    1
    28    18    19    1
    29     4     5    1
    30     5     6    1
    31    30    31   ar
    32    31    32   ar
    33    32    22   ar
    34    31    25   ar
    35     6     1    1
    36    15    10   ar
    37    19    13    1
    38     7     8    1
@<TRIPOS>MOLECULE
*****
 34 38 0 0 0
SMALL
GASTEIGER

@<TRIPOS>ATOM
      1 C         142.9697  144.1233  163.0802 C.3     1  UNL1        0.2355
      2 O         142.3955  144.1716  161.6953 O.3     1  UNL1       -0.3290
      3 C         140.9481  144.5103  161.4948 C.3     1  UNL1        0.1629
      4 C         140.0748  144.8007  162.6794 C.3     1  UNL1        0.1144
      5 C         140.6490  144.7524  164.0643 C.3     1  UNL1        0.1629
      6 O         142.0965  144.4137  164.2647 O.3     1  UNL1       -0.3290
      7 N         138.6274  145.1394  162.4789 N.3     1  UNL1       -0.2908
      8 H         138.4743  145.1933  161.4719 H       1  UNL1        0.1237
      9 C         137.5628  144.2384  163.0311 C.3     1  UNL1        0.0958
     10 C         137.8069  142.7617  163.1293 C.ar    1  UNL1       -0.0032
     11 C         137.8846  141.9298  161.8835 C.ar    1  UNL1        0.0004
     12 C         138.1286  140.4531  161.9817 C.ar    1  UNL1        0.0398
     13 C         138.2949  139.8082  163.3257 C.ar    1  UNL1        0.1724
     14 C         138.2172  140.6399  164.5715 C.ar    1  UNL1        0.1721
     15 C         137.9731  142.1167  164.4733 C.ar    1  UNL1        0.0371
     16 O         138.3835  139.9950  165.9155 O.3     1  UNL1       -0.4684
     17 C         138.6275  138.5182  166.0138 C.3     1  UNL1        0.2526
     18 C         138.7052  137.6864  164.7679 C.3     1  UNL1        0.2526
     19 O         138.5389  138.3313  163.4239 O.3     1  UNL1       -0.4684
     20 C         144.4171  143.7845  163.2806 C.3     1  UNL1        0.0661
     21 C         144.8294  142.8978  164.4181 C.3     1  UNL1        0.0355
     22 C         142.3345  141.8693  168.0192 C.ar    1  UNL1        0.2250
     23 C         141.7418  140.4980  168.1540 C.ar    1  UNL1        0.0593
     24 C         141.9807  139.4695  167.0886 C.ar    1  UNL1        0.0254
     25 C         142.8123  139.8124  165.8882 C.ar    1  UNL1        0.0990
     26 N         143.0512  138.7839  164.8228 N.ar    1  UNL1       -0.2400
     27 C         143.8828  139.1267  163.6224 C.ar    1  UNL1        0.1281
     28 C         144.4756  140.4981  163.4875 C.ar    1  UNL1        0.1567
     29 F         145.3072  140.8409  162.2872 F       1  UNL1       -0.2028
     30 C         144.2367  141.5265  164.5530 C.ar    1  UNL1        0.0262
     31 C         143.4050  141.1836  165.7534 C.ar    1  UNL1        0.1002
     32 N         143.1661  142.2121  166.8188 N.ar    1  UNL1       -0.2104
     33 C         142.9071  142.8735  170.3459 C.3     1  UNL1        0.2542
     34 O         142.0956  142.8977  169.0846 O.3     1  UNL1       -0.4561
@<TRIPOS>BOND
     1    33    34    1
     2    34    22    1
     3    22    23   ar
     4    23    24   ar
     5    24    25   ar
     6    25    26   ar
     7    26    27   ar
     8    27    28   ar
     9    28    29    1
    10    28    30   ar
    11    30    21    1
    12    21    20    1
    13     1    20    1
    14     1     2    1
    15     2     3    1
    16     3     4    1
    17     4     7    1
    18     7     9    1
    19     9    10    1
    20    10    11   ar
    21    11    12   ar
    22    12    13   ar
    23    13    14   ar
    24    14    15   ar
    25    14    16    1
    26    16    17    1
    27    17    18    1
    28    18    19    1
    29     4     5    1
    30     5     6    1
    31    30    31   ar
    32    31    32   ar
    33    32    22   ar
    34    31    25   ar
    35     6     1    1
    36    15    10   ar
    37    19    13    1
    38     7     8    1
@<TRIPOS>MOLECULE
*****
 34 38 0 0 0
SMALL
GASTEIGER

@<TRIPOS>ATOM
      1 C         143.8073  141.9422  163.8885 C.3     1  UNL1        0.2355
      2 O         144.0593  142.7302  162.6372 O.3     1  UNL1       -0.3290
      3 C         143.3027  144.0007  162.3858 C.3     1  UNL1        0.1629
      4 C         142.2940  144.4833  163.3857 C.3     1  UNL1        0.1144
      5 C         142.0419  143.6954  164.6369 C.3     1  UNL1        0.1629
      6 O         142.7986  142.4248  164.8883 O.3     1  UNL1       -0.3290
      7 N         141.5373  145.7539  163.1343 N.3     1  UNL1       -0.2908
      8 H         142.1847  146.3967  162.6781 H       1  UNL1        0.1237
      9 C         140.2901  145.7317  162.3013 C.3     1  UNL1        0.0958
     10 C         139.4994  144.4640  162.1683 C.ar    1  UNL1       -0.0032
     11 C         138.4454  144.1277  163.1813 C.ar    1  UNL1        0.0004
     12 C         137.6547  142.8600  163.0484 C.ar    1  UNL1        0.0398
     13 C         137.9180  141.9286  161.9024 C.ar    1  UNL1        0.1724
     14 C         138.9719  142.2648  160.8895 C.ar    1  UNL1        0.1721
     15 C         139.7626  143.5326  161.0224 C.ar    1  UNL1        0.0371
     16 O         139.2351  141.3334  159.7435 O.3     1  UNL1       -0.4684
     17 C         138.4444  140.0657  159.6106 C.3     1  UNL1        0.2526
     18 C         137.3904  139.7294  160.6236 C.3     1  UNL1        0.2526
     19 O         137.1272  140.6608  161.7695 O.3     1  UNL1       -0.4684
     20 C         144.5639  140.6717  164.1399 C.3     1  UNL1        0.0661
     21 C         143.8366  139.4453  164.6059 C.3     1  UNL1        0.0355
     22 C         139.6207  139.4286  166.1795 C.ar    1  UNL1        0.2250
     23 C         138.5124  138.8529  165.3487 C.ar    1  UNL1        0.0593
     24 C         138.8094  138.2828  163.9935 C.ar    1  UNL1        0.0254
     25 C         140.2146  138.2883  163.4689 C.ar    1  UNL1        0.0990
     26 N         140.5116  137.7182  162.1136 N.ar    1  UNL1       -0.2400
     27 C         141.9168  137.7238  161.5891 C.ar    1  UNL1        0.1281
     28 C         143.0252  138.2995  162.4199 C.ar    1  UNL1        0.1567
     29 F         144.4305  138.3050  161.8953 F       1  UNL1       -0.2028
     30 C         142.7283  138.8696  163.7751 C.ar    1  UNL1        0.0262
     31 C         141.3229  138.8640  164.2997 C.ar    1  UNL1        0.1002
     32 N         141.0260  139.4342  165.6549 N.ar    1  UNL1       -0.2104
     33 C         140.3316  140.8758  168.2167 C.3     1  UNL1        0.2542
     34 O         139.3238  139.9988  167.5347 O.3     1  UNL1       -0.4561
@<TRIPOS>BOND
     1    33    34    1
     2    34    22    1
     3    22    23   ar
     4    23    24   ar
     5    24    25   ar
     6    25    26   ar
     7    26    27   ar
     8    27    28   ar
     9    28    29    1
    10    28    30   ar
    11    30    21    1
    12    21    20    1
    13     1    20    1
    14     1     2    1
    15     2     3    1
    16     3     4    1
    17     4     7    1
    18     7     9    1
    19     9    10    1
    20    10    11   ar
    21    11    12   ar
    22    12    13   ar
    23    13    14   ar
    24    14    15   ar
    25    14    16    1
    26    16    17    1
    27    17    18    1
    28    18    19    1
    29     4     5    1
    30     5     6    1
    31    30    31   ar
    32    31    32   ar
    33    32    22   ar
    34    31    25   ar
    35     6     1    1
    36    15    10   ar
    37    19    13    1
    38     7     8    1
@<TRIPOS>MOLECULE
*****
 34 38 0 0 0
SMALL
GASTEIGER

@<TRIPOS>ATOM
      1 C         140.0231  138.1648  163.9573 C.3     1  UNL1        0.2355
      2 O         139.3280  138.8636  165.0880 O.3     1  UNL1       -0.3290
      3 C         138.2927  139.9100  164.7998 C.3     1  UNL1        0.1629
      4 C         137.9525  140.2578  163.3808 C.3     1  UNL1        0.1144
      5 C         138.6476  139.5589  162.2501 C.3     1  UNL1        0.1629
      6 O         139.6829  138.5124  162.5383 O.3     1  UNL1       -0.3290
      7 N         136.9173  141.3042  163.0926 N.3     1  UNL1       -0.2908
      8 H         136.4199  141.4749  163.9666 H       1  UNL1        0.1237
      9 C         137.3329  142.6443  162.5621 C.3     1  UNL1        0.0958
     10 C         138.6451  143.2410  162.9767 C.ar    1  UNL1       -0.0032
     11 C         138.7488  144.0038  164.2642 C.ar    1  UNL1        0.0004
     12 C         140.0610  144.6005  164.6788 C.ar    1  UNL1        0.0398
     13 C         141.2696  144.4344  163.8061 C.ar    1  UNL1        0.1724
     14 C         141.1660  143.6716  162.5187 C.ar    1  UNL1        0.1721
     15 C         139.8537  143.0748  162.1040 C.ar    1  UNL1        0.0371
     16 O         142.3747  143.5054  161.6460 O.3     1  UNL1       -0.4684
     17 C         143.6869  144.1021  162.0607 C.3     1  UNL1        0.2526
     18 C         143.7905  144.8650  163.3481 C.3     1  UNL1        0.2526
     19 O         142.5819  145.0311  164.2208 O.3     1  UNL1       -0.4684
     20 C         141.0583  137.1183  164.2455 C.3     1  UNL1        0.0661
     21 C         142.3059  137.4835  164.9941 C.3     1  UNL1        0.0355
     22 C         141.7371  140.6359  168.1546 C.ar    1  UNL1        0.2250
     23 C         142.3475  141.9945  167.9772 C.ar    1  UNL1        0.0593
     24 C         143.1476  142.3023  166.7463 C.ar    1  UNL1        0.0254
     25 C         143.3372  141.2516  165.6928 C.ar    1  UNL1        0.0990
     26 N         144.1373  141.5594  164.4619 N.ar    1  UNL1       -0.2400
     27 C         144.3270  140.5086  163.4084 C.ar    1  UNL1        0.1281
     28 C         143.7164  139.1499  163.5858 C.ar    1  UNL1        0.1567
     29 F         143.9061  138.0991  162.5323 F       1  UNL1       -0.2028
     30 C         142.9163  138.8421  164.8167 C.ar    1  UNL1        0.0262
     31 C         142.7268  139.8930  165.8702 C.ar    1  UNL1        0.1002
     32 N         141.9267  139.5852  167.1011 N.ar    1  UNL1       -0.2104
     33 C         139.4391  140.3957  169.3427 C.3     1  UNL1        0.2542
     34 O         140.9370  140.3281  169.3855 O.3     1  UNL1       -0.4561
@<TRIPOS>BOND
     1    33    34    1
     2    34    22    1
     3    22    23   ar
     4    23    24   ar
     5    24    25   ar
     6    25    26   ar
     7    26    27   ar
     8    27    28   ar
     9    28    29    1
    10    28    30   ar
    11    30    21    1
    12    21    20    1
    13     1    20    1
    14     1     2    1
    15     2     3    1
    16     3     4    1
    17     4     7    1
    18     7     9    1
    19     9    10    1
    20    10    11   ar
    21    11    12   ar
    22    12    13   ar
    23    13    14   ar
    24    14    15   ar
    25    14    16    1
    26    16    17    1
    27    17    18    1
    28    18    19    1
    29     4     5    1
    30     5     6    1
    31    30    31   ar
    32    31    32   ar
    33    32    22   ar
    34    31    25   ar
    35     6     1    1
    36    15    10   ar
    37    19    13    1
    38     7     8    1
@<TRIPOS>MOLECULE
*****
 34 38 0 0 0
SMALL
GASTEIGER

@<TRIPOS>ATOM
      1 C         143.4930  140.5551  160.5864 C.3     1  UNL1        0.2355
      2 O         141.9982  140.4935  160.6953 O.3     1  UNL1       -0.3290
      3 C         141.3420  139.3153  161.3520 C.3     1  UNL1        0.1629
      4 C         142.1806  138.1987  161.8998 C.3     1  UNL1        0.1144
      5 C         143.6753  138.2603  161.7908 C.3     1  UNL1        0.1629
      6 O         144.3315  139.4386  161.1341 O.3     1  UNL1       -0.3290
      7 N         141.5244  137.0205  162.5564 N.3     1  UNL1       -0.2908
      8 H         142.2535  136.3232  162.7066 H       1  UNL1        0.1237
      9 C         140.8128  137.1918  163.8658 C.3     1  UNL1        0.0958
     10 C         141.3153  138.1885  164.8677 C.ar    1  UNL1       -0.0032
     11 C         142.6602  137.9991  165.5044 C.ar    1  UNL1        0.0004
     12 C         143.1627  138.9958  166.5064 C.ar    1  UNL1        0.0398
     13 C         142.3203  140.1820  166.8717 C.ar    1  UNL1        0.1724
     14 C         140.9754  140.3714  166.2350 C.ar    1  UNL1        0.1721
     15 C         140.4729  139.3746  165.2330 C.ar    1  UNL1        0.0371
     16 O         140.1331  141.5575  166.6003 O.3     1  UNL1       -0.4684
     17 C         140.6355  142.5543  167.6023 C.3     1  UNL1        0.2526
     18 C         141.9805  142.3649  168.2390 C.3     1  UNL1        0.2526
     19 O         142.8229  141.1787  167.8737 O.3     1  UNL1       -0.4684
     20 C         144.1492  141.7333  159.9297 C.3     1  UNL1        0.0661
     21 C         144.6144  142.8922  160.7607 C.3     1  UNL1        0.0355
     22 C         140.7633  145.1115  161.4631 C.ar    1  UNL1        0.2250
     23 C         140.2443  145.2897  162.8591 C.ar    1  UNL1        0.0593
     24 C         141.0089  144.7281  164.0210 C.ar    1  UNL1        0.0254
     25 C         142.2926  143.9883  163.7868 C.ar    1  UNL1        0.0990
     26 N         143.0572  143.4267  164.9487 N.ar    1  UNL1       -0.2400
     27 C         144.3409  142.6869  164.7146 C.ar    1  UNL1        0.1281
     28 C         144.8600  142.5088  163.3185 C.ar    1  UNL1        0.1567
     29 F         146.1437  141.7690  163.0844 F       1  UNL1       -0.2028
     30 C         144.0954  143.0704  162.1567 C.ar    1  UNL1        0.0262
     31 C         142.8116  143.8102  162.3909 C.ar    1  UNL1        0.1002
     32 N         142.0470  144.3718  161.2290 N.ar    1  UNL1       -0.2104
     33 C         140.4532  145.3946  158.8992 C.3     1  UNL1        0.2542
     34 O         139.9987  145.6731  160.3013 O.3     1  UNL1       -0.4561
@<TRIPOS>BOND
     1    33    34    1
     2    34    22    1
     3    22    23   ar
     4    23    24   ar
     5    24    25   ar
     6    25    26   ar
     7    26    27   ar
     8    27    28   ar
     9    28    29    1
    10    28    30   ar
    11    30    21    1
    12    21    20    1
    13     1    20    1
    14     1     2    1
    15     2     3    1
    16     3     4    1
    17     4     7    1
    18     7     9    1
    19     9    10    1
    20    10    11   ar
    21    11    12   ar
    22    12    13   ar
    23    13    14   ar
    24    14    15   ar
    25    14    16    1
    26    16    17    1
    27    17    18    1
    28    18    19    1
    29     4     5    1
    30     5     6    1
    31    30    31   ar
    32    31    32   ar
    33    32    22   ar
    34    31    25   ar
    35     6     1    1
    36    15    10   ar
    37    19    13    1
    38     7     8    1
@<TRIPOS>MOLECULE
*****
 34 38 0 0 0
SMALL
GASTEIGER

@<TRIPOS>ATOM
      1 C         144.4987  140.0741  163.5520 C.3     1  UNL1        0.2355
      2 O         143.7414  139.3540  164.6281 O.3     1  UNL1       -0.3290
      3 C         142.6426  138.4007  164.2624 C.3     1  UNL1        0.1629
      4 C         142.3010  138.1675  162.8205 C.3     1  UNL1        0.1144
      5 C         143.0583  138.8876  161.7444 C.3     1  UNL1        0.1629
      6 O         144.1571  139.8409  162.1102 O.3     1  UNL1       -0.3290
      7 N         141.2022  137.2142  162.4548 N.3     1  UNL1       -0.2908
      8 H         141.3413  136.3747  163.0172 H       1  UNL1        0.1237
      9 C         139.7686  137.6196  162.6293 C.3     1  UNL1        0.0958
     10 C         139.3649  139.0511  162.4348 C.ar    1  UNL1       -0.0032
     11 C         139.4686  139.6818  161.0777 C.ar    1  UNL1        0.0004
     12 C         139.0649  141.1133  160.8832 C.ar    1  UNL1        0.0398
     13 C         138.5577  141.9141  162.0457 C.ar    1  UNL1        0.1724
     14 C         138.4540  141.2835  163.4027 C.ar    1  UNL1        0.1721
     15 C         138.8576  139.8519  163.5972 C.ar    1  UNL1        0.0371
     16 O         137.9467  142.0843  164.5651 O.3     1  UNL1       -0.4684
     17 C         137.5431  143.5158  164.3706 C.3     1  UNL1        0.2526
     18 C         137.6467  144.1465  163.0135 C.3     1  UNL1        0.2526
     19 O         138.1540  143.3457  161.8511 O.3     1  UNL1       -0.4684
     20 C         145.5975  141.0273  163.9177 C.3     1  UNL1        0.0661
     21 C         145.2648  142.4227  164.3565 C.3     1  UNL1        0.0355
     22 C         142.4113  141.7900  167.7781 C.ar    1  UNL1        0.2250
     23 C         141.0007  142.2906  167.6806 C.ar    1  UNL1        0.0593
     24 C         140.5413  143.0021  166.4426 C.ar    1  UNL1        0.0254
     25 C         141.4924  143.2130  165.3020 C.ar    1  UNL1        0.0990
     26 N         141.0329  143.9245  164.0640 N.ar    1  UNL1       -0.2400
     27 C         141.9841  144.1354  162.9235 C.ar    1  UNL1        0.1281
     28 C         143.3948  143.6348  163.0210 C.ar    1  UNL1        0.1567
     29 F         144.3459  143.8457  161.8805 F       1  UNL1       -0.2028
     30 C         143.8542  142.9233  164.2590 C.ar    1  UNL1        0.0262
     31 C         142.9030  142.7124  165.3995 C.ar    1  UNL1        0.1002
     32 N         143.3625  142.0009  166.6376 N.ar    1  UNL1       -0.2104
     33 C         142.2377  139.7777  169.4122 C.3     1  UNL1        0.2542
     34 O         142.8708  141.0785  169.0161 O.3     1  UNL1       -0.4561
@<TRIPOS>BOND
     1    33    34    1
     2    34    22    1
     3    22    23   ar
     4    23    24   ar
     5    24    25   ar
     6    25    26   ar
     7    26    27   ar
     8    27    28   ar
     9    28    29    1
    10    28    30   ar
    11    30    21    1
    12    21    20    1
    13     1    20    1
    14     1     2    1
    15     2     3    1
    16     3     4    1
    17     4     7    1
    18     7     9    1
    19     9    10    1
    20    10    11   ar
    21    11    12   ar
    22    12    13   ar
    23    13    14   ar
    24    14    15   ar
    25    14    16    1
    26    16    17    1
    27    17    18    1
    28    18    19    1
    29     4     5    1
    30     5     6    1
    31    30    31   ar
    32    31    32   ar
    33    32    22   ar
    34    31    25   ar
    35     6     1    1
    36    15    10   ar
    37    19    13    1
    38     7     8    1
