@<TRIPOS>MOLECULE
*****
 41 44 0 0 0
SMALL
GASTEIGER

@<TRIPOS>ATOM
      1 N         137.2162  140.6053  161.9455 N.3     1  UNL1       -0.2974
      2 H         137.7795  141.1261  161.2733 H       1  UNL1        0.1232
      3 C         137.1916  141.4142  163.2085 C.3     1  UNL1        0.0700
      4 N         139.7875  144.2855  162.9216 N.3     1  UNL1       -0.2689
      5 C         139.3940  144.3936  164.3650 C.3     1  UNL1        0.0725
      6 C         138.3737  143.3312  164.6482 C.3     1  UNL1        0.0201
      7 C         138.1365  142.5664  163.3798 C.3     1  UNL1        0.0331
      8 C         139.0103  143.1562  162.3127 C.3     1  UNL1        0.0738
      9 C         140.7833  145.1541  162.2117 C.3     1  UNL1        0.0993
     10 C         143.0855  143.1938  159.6413 C.ar    1  UNL1        0.1752
     11 C         142.4746  143.6537  160.9317 C.ar    1  UNL1        0.0373
     12 C         141.3942  144.6942  160.9212 C.ar    1  UNL1        0.0001
     13 C         140.9248  145.2748  159.6203 C.ar    1  UNL1        0.0373
     14 C         141.5357  144.8150  158.3299 C.ar    1  UNL1        0.1752
     15 C         142.6161  143.7744  158.3404 C.ar    1  UNL1        0.2060
     16 C         143.8083  140.7021  159.7793 C.3     1  UNL1        0.2526
     17 O         144.1659  142.1533  159.6518 O.3     1  UNL1       -0.4683
     18 O         141.0662  145.3956  157.0289 O.3     1  UNL1       -0.4683
     19 C         139.9877  146.4380  157.0185 C.3     1  UNL1        0.2526
     20 O         143.2270  143.3146  157.0499 O.3     1  UNL1       -0.4654
     21 C         142.7263  142.0661  156.3860 C.3     1  UNL1        0.2528
     22 C         137.7491  139.2033  161.9630 C.3     1  UNL1        0.0686
     23 C         139.0461  138.9026  162.6538 C.3     1  UNL1        0.0171
     24 C         139.1227  137.7853  163.6519 C.3     1  UNL1        0.0014
     25 C         138.8621  138.0576  165.1038 C.3     1  UNL1        0.0007
     26 C         138.7819  139.4711  165.5993 C.3     1  UNL1        0.0087
     27 C         140.0070  140.1472  166.1396 C.3     1  UNL1        0.0446
     28 C         139.9569  140.8389  167.4696 C.ar    1  UNL1       -0.0183
     29 C         139.3185  140.1595  168.6447 C.ar    1  UNL1       -0.0017
     30 C         139.2683  140.8512  169.9748 C.ar    1  UNL1        0.0293
     31 C         139.8565  142.2223  170.1298 C.ar    1  UNL1        0.1401
     32 F         139.8063  142.9140  171.4598 F       1  UNL1       -0.2042
     33 C         140.4949  142.9018  168.9547 C.ar    1  UNL1        0.0293
     34 C         140.5450  142.2100  167.6245 C.ar    1  UNL1       -0.0017
     35 C         141.2822  140.1315  165.3500 C.ar    1  UNL1       -0.0183
     36 C         142.3634  139.1493  165.6909 C.ar    1  UNL1       -0.0017
     37 C         143.6387  139.1336  164.9012 C.ar    1  UNL1        0.0293
     38 C         143.8327  140.1001  163.7707 C.ar    1  UNL1        0.1401
     39 F         145.1079  140.0844  162.9810 F       1  UNL1       -0.2042
     40 C         142.7515  141.0824  163.4298 C.ar    1  UNL1        0.0293
     41 C         141.4762  141.0981  164.2194 C.ar    1  UNL1       -0.0017
@<TRIPOS>BOND
     1    16    17    1
     2    17    10    1
     3    10    11   ar
     4    11    12   ar
     5    12     9    1
     6     9     4    1
     7     4     5    1
     8     5     6    1
     9     6     7    1
    10     7     3    1
    11     3     1    1
    12     1    22    1
    13    22    23    1
    14    23    24    1
    15    24    25    1
    16    25    26    1
    17    26    27    1
    18    27    28    1
    19    28    29   ar
    20    29    30   ar
    21    30    31   ar
    22    31    32    1
    23    31    33   ar
    24    33    34   ar
    25    27    35    1
    26    35    36   ar
    27    36    37   ar
    28    37    38   ar
    29    38    39    1
    30    38    40   ar
    31    40    41   ar
    32     7     8    1
    33    12    13   ar
    34    13    14   ar
    35    14    18    1
    36    18    19    1
    37    14    15   ar
    38    15    20    1
    39    20    21    1
    40    15    10   ar
    41     8     4    1
    42    34    28   ar
    43    41    35   ar
    44     1     2    1
@<TRIPOS>MOLECULE
*****
 41 44 0 0 0
SMALL
GASTEIGER

@<TRIPOS>ATOM
      1 N         137.1887  140.5015  161.8731 N.3     1  UNL1       -0.2974
      2 H         137.6830  141.0619  161.1788 H       1  UNL1        0.1232
      3 C         137.2975  141.2337  163.1777 C.3     1  UNL1        0.0700
      4 N         139.5084  144.3830  162.6687 N.3     1  UNL1       -0.2689
      5 C         139.1333  144.5228  164.1143 C.3     1  UNL1        0.0725
      6 C         138.2594  143.3601  164.4809 C.3     1  UNL1        0.0201
      7 C         138.0945  142.5017  163.2619 C.3     1  UNL1        0.0331
      8 C         138.8664  143.1339  162.1419 C.3     1  UNL1        0.0738
      9 C         140.3737  145.3267  161.8871 C.3     1  UNL1        0.0993
     10 C         141.3579  144.8673  158.0700 C.ar    1  UNL1        0.1752
     11 C         140.6515  145.3449  159.3040 C.ar    1  UNL1        0.0373
     12 C         141.0802  144.8490  160.6531 C.ar    1  UNL1        0.0001
     13 C         142.2154  143.8753  160.7683 C.ar    1  UNL1        0.0373
     14 C         142.9218  143.3977  159.5343 C.ar    1  UNL1        0.1752
     15 C         142.4931  143.8936  158.1852 C.ar    1  UNL1        0.2060
     16 C         139.9281  146.4752  156.6139 C.3     1  UNL1        0.2526
     17 O         140.9292  145.3633  156.7208 O.3     1  UNL1       -0.4683
     18 O         144.0571  142.4240  159.6494 O.3     1  UNL1       -0.4683
     19 C         143.7922  140.9499  159.5670 C.3     1  UNL1        0.2526
     20 O         143.1996  143.4159  156.9511 O.3     1  UNL1       -0.4654
     21 C         142.5822  142.3460  156.1002 C.3     1  UNL1        0.2528
     22 C         137.7134  139.1014  161.7527 C.3     1  UNL1        0.0686
     23 C         138.9429  138.6937  162.5088 C.3     1  UNL1        0.0171
     24 C         138.8612  137.6149  163.5479 C.3     1  UNL1        0.0014
     25 C         139.1178  137.9410  164.9894 C.3     1  UNL1        0.0007
     26 C         138.9336  139.3447  165.4851 C.3     1  UNL1        0.0087
     27 C         140.1102  140.1178  166.0027 C.3     1  UNL1        0.0446
     28 C         140.0211  140.8248  167.3226 C.ar    1  UNL1       -0.0183
     29 C         140.5363  142.2270  167.4585 C.ar    1  UNL1       -0.0017
     30 C         140.4472  142.9341  168.7785 C.ar    1  UNL1        0.0293
     31 C         139.8428  142.2390  169.9624 C.ar    1  UNL1        0.1401
     32 F         139.7537  142.9461  171.2823 F       1  UNL1       -0.2042
     33 C         139.3276  140.8368  169.8264 C.ar    1  UNL1        0.0293
     34 C         139.4168  140.1297  168.5065 C.ar    1  UNL1       -0.0017
     35 C         141.3759  140.1838  165.2005 C.ar    1  UNL1       -0.0183
     36 C         142.5891  139.4246  165.6498 C.ar    1  UNL1       -0.0017
     37 C         143.8548  139.4906  164.8475 C.ar    1  UNL1        0.0293
     38 C         143.9074  140.3158  163.5959 C.ar    1  UNL1        0.1401
     39 F         145.1731  140.3818  162.7937 F       1  UNL1       -0.2042
     40 C         142.6941  141.0750  163.1467 C.ar    1  UNL1        0.0293
     41 C         141.4284  141.0090  163.9489 C.ar    1  UNL1       -0.0017
@<TRIPOS>BOND
     1    16    17    1
     2    17    10    1
     3    10    11   ar
     4    11    12   ar
     5    12     9    1
     6     9     4    1
     7     4     5    1
     8     5     6    1
     9     6     7    1
    10     7     3    1
    11     3     1    1
    12     1    22    1
    13    22    23    1
    14    23    24    1
    15    24    25    1
    16    25    26    1
    17    26    27    1
    18    27    28    1
    19    28    29   ar
    20    29    30   ar
    21    30    31   ar
    22    31    32    1
    23    31    33   ar
    24    33    34   ar
    25    27    35    1
    26    35    36   ar
    27    36    37   ar
    28    37    38   ar
    29    38    39    1
    30    38    40   ar
    31    40    41   ar
    32     7     8    1
    33    12    13   ar
    34    13    14   ar
    35    14    18    1
    36    18    19    1
    37    14    15   ar
    38    15    20    1
    39    20    21    1
    40    15    10   ar
    41     8     4    1
    42    34    28   ar
    43    41    35   ar
    44     1     2    1
@<TRIPOS>MOLECULE
*****
 41 44 0 0 0
SMALL
GASTEIGER

@<TRIPOS>ATOM
      1 N         143.4654  143.5496  160.4634 N.3     1  UNL1       -0.2974
      2 H         144.0946  144.3507  160.4106 H       1  UNL1        0.1232
      3 C         144.3281  142.3232  160.5027 C.3     1  UNL1        0.0700
      4 N         144.0215  139.8836  163.5060 N.3     1  UNL1       -0.2689
      5 C         145.2018  140.7100  163.9232 C.3     1  UNL1        0.0725
      6 C         145.4603  141.7245  162.8490 C.3     1  UNL1        0.0201
      7 C         144.4398  141.5250  161.7678 C.3     1  UNL1        0.0331
      8 C         143.5506  140.3873  162.1739 C.3     1  UNL1        0.0738
      9 C         143.4182  138.7521  164.2843 C.3     1  UNL1        0.0993
     10 C         140.3326  139.6224  166.6235 C.ar    1  UNL1        0.1752
     11 C         141.1433  139.3385  165.3938 C.ar    1  UNL1        0.0373
     12 C         142.6075  139.0360  165.5141 C.ar    1  UNL1        0.0001
     13 C         143.2611  139.0174  166.8641 C.ar    1  UNL1        0.0373
     14 C         142.4504  139.3013  168.0937 C.ar    1  UNL1        0.1752
     15 C         140.9862  139.6038  167.9735 C.ar    1  UNL1        0.2060
     16 C         137.8657  138.8105  166.5535 C.3     1  UNL1        0.2526
     17 O         138.8683  139.9249  166.5032 O.3     1  UNL1       -0.4683
     18 O         143.1040  139.2827  169.4438 O.3     1  UNL1       -0.4683
     19 C         143.0184  138.0552  170.3017 C.3     1  UNL1        0.2526
     20 O         140.1755  139.8877  169.2033 O.3     1  UNL1       -0.4654
     21 C         139.7406  141.2907  169.5075 C.3     1  UNL1        0.2528
     22 C         142.4542  143.7205  159.3687 C.3     1  UNL1        0.0686
     23 C         140.9900  143.6165  159.6774 C.3     1  UNL1        0.0171
     24 C         140.1946  144.8552  159.9661 C.3     1  UNL1        0.0014
     25 C         140.2993  145.5180  161.3077 C.3     1  UNL1        0.0007
     26 C         139.6894  144.8688  162.5146 C.3     1  UNL1        0.0087
     27 C         140.3112  143.6341  163.0968 C.3     1  UNL1        0.0446
     28 C         141.5964  143.7321  163.8640 C.ar    1  UNL1       -0.0183
     29 C         141.8784  142.7710  164.9806 C.ar    1  UNL1       -0.0017
     30 C         143.1637  142.8689  165.7478 C.ar    1  UNL1        0.0293
     31 C         144.1669  143.9279  165.3984 C.ar    1  UNL1        0.1401
     32 F         145.4521  144.0257  166.1657 F       1  UNL1       -0.2042
     33 C         143.8849  144.8890  164.2818 C.ar    1  UNL1        0.0293
     34 C         142.5996  144.7910  163.5146 C.ar    1  UNL1       -0.0017
     35 C         139.6478  142.3016  162.9119 C.ar    1  UNL1       -0.0183
     36 C         140.3388  141.2214  162.1337 C.ar    1  UNL1       -0.0017
     37 C         139.6754  139.8888  161.9487 C.ar    1  UNL1        0.0293
     38 C         138.3210  139.6365  162.5420 C.ar    1  UNL1        0.1401
     39 F         137.6575  138.3039  162.3570 F       1  UNL1       -0.2042
     40 C         137.6300  140.7168  163.3202 C.ar    1  UNL1        0.0293
     41 C         138.2934  142.0493  163.5051 C.ar    1  UNL1       -0.0017
@<TRIPOS>BOND
     1    16    17    1
     2    17    10    1
     3    10    11   ar
     4    11    12   ar
     5    12     9    1
     6     9     4    1
     7     4     5    1
     8     5     6    1
     9     6     7    1
    10     7     3    1
    11     3     1    1
    12     1    22    1
    13    22    23    1
    14    23    24    1
    15    24    25    1
    16    25    26    1
    17    26    27    1
    18    27    28    1
    19    28    29   ar
    20    29    30   ar
    21    30    31   ar
    22    31    32    1
    23    31    33   ar
    24    33    34   ar
    25    27    35    1
    26    35    36   ar
    27    36    37   ar
    28    37    38   ar
    29    38    39    1
    30    38    40   ar
    31    40    41   ar
    32     7     8    1
    33    12    13   ar
    34    13    14   ar
    35    14    18    1
    36    18    19    1
    37    14    15   ar
    38    15    20    1
    39    20    21    1
    40    15    10   ar
    41     8     4    1
    42    34    28   ar
    43    41    35   ar
    44     1     2    1
@<TRIPOS>MOLECULE
*****
 41 44 0 0 0
SMALL
GASTEIGER

@<TRIPOS>ATOM
      1 N         137.1033  140.5288  161.7900 N.3     1  UNL1       -0.2974
      2 H         137.3735  141.2000  161.0711 H       1  UNL1        0.1232
      3 C         137.1763  141.2487  163.1040 C.3     1  UNL1        0.0700
      4 N         139.3764  144.4179  162.6786 N.3     1  UNL1       -0.2689
      5 C         138.9461  144.5536  164.1092 C.3     1  UNL1        0.0725
      6 C         138.0696  143.3829  164.4427 C.3     1  UNL1        0.0201
      7 C         137.9581  142.5237  163.2182 C.3     1  UNL1        0.0331
      8 C         138.7658  143.1634  162.1280 C.3     1  UNL1        0.0738
      9 C         140.2618  145.3696  161.9302 C.3     1  UNL1        0.0993
     10 C         141.2086  144.9386  158.1003 C.ar    1  UNL1        0.1752
     11 C         140.5017  145.3917  159.3433 C.ar    1  UNL1        0.0373
     12 C         140.9688  144.9165  160.6872 C.ar    1  UNL1        0.0001
     13 C         142.1426  143.9882  160.7881 C.ar    1  UNL1        0.0373
     14 C         142.8495  143.5351  159.5451 C.ar    1  UNL1        0.1752
     15 C         142.3825  144.0103  158.2012 C.ar    1  UNL1        0.2060
     16 C         139.8815  146.6382  156.6511 C.3     1  UNL1        0.2526
     17 O         140.7416  145.4139  156.7564 O.3     1  UNL1       -0.4683
     18 O         144.0234  142.6067  159.6460 O.3     1  UNL1       -0.4683
     19 C         143.8090  141.1222  159.6315 C.3     1  UNL1        0.2526
     20 O         143.0894  143.5572  156.9582 O.3     1  UNL1       -0.4654
     21 C         142.6029  142.3468  156.2177 C.3     1  UNL1        0.2528
     22 C         137.9276  139.2962  161.5633 C.3     1  UNL1        0.0686
     23 C         139.0703  138.9788  162.4816 C.3     1  UNL1        0.0171
     24 C         138.9446  137.8644  163.4778 C.3     1  UNL1        0.0014
     25 C         138.7897  138.1765  164.9368 C.3     1  UNL1        0.0007
     26 C         138.7616  139.6030  165.3997 C.3     1  UNL1        0.0087
     27 C         140.0059  140.2394  165.9446 C.3     1  UNL1        0.0446
     28 C         141.2702  140.2258  165.1377 C.ar    1  UNL1       -0.0183
     29 C         142.3542  139.2400  165.4588 C.ar    1  UNL1       -0.0017
     30 C         143.6187  139.2264  164.6518 C.ar    1  UNL1        0.0293
     31 C         143.7991  140.1986  163.5239 C.ar    1  UNL1        0.1401
     32 F         145.0635  140.1849  162.7170 F       1  UNL1       -0.2042
     33 C         142.7151  141.1844  163.2028 C.ar    1  UNL1        0.0293
     34 C         141.4506  141.1980  164.0097 C.ar    1  UNL1       -0.0017
     35 C         139.9857  140.8893  167.2963 C.ar    1  UNL1       -0.0183
     36 C         140.4463  142.3082  167.4531 C.ar    1  UNL1       -0.0017
     37 C         140.4262  142.9582  168.8049 C.ar    1  UNL1        0.0293
     38 C         139.9454  142.1893  169.9998 C.ar    1  UNL1        0.1401
     39 F         139.9252  142.8392  171.3515 F       1  UNL1       -0.2042
     40 C         139.4847  140.7704  169.8428 C.ar    1  UNL1        0.0293
     41 C         139.5049  140.1204  168.4911 C.ar    1  UNL1       -0.0017
@<TRIPOS>BOND
     1    16    17    1
     2    17    10    1
     3    10    11   ar
     4    11    12   ar
     5    12     9    1
     6     9     4    1
     7     4     5    1
     8     5     6    1
     9     6     7    1
    10     7     3    1
    11     3     1    1
    12     1    22    1
    13    22    23    1
    14    23    24    1
    15    24    25    1
    16    25    26    1
    17    26    27    1
    18    27    28    1
    19    28    29   ar
    20    29    30   ar
    21    30    31   ar
    22    31    32    1
    23    31    33   ar
    24    33    34   ar
    25    27    35    1
    26    35    36   ar
    27    36    37   ar
    28    37    38   ar
    29    38    39    1
    30    38    40   ar
    31    40    41   ar
    32     7     8    1
    33    12    13   ar
    34    13    14   ar
    35    14    18    1
    36    18    19    1
    37    14    15   ar
    38    15    20    1
    39    20    21    1
    40    15    10   ar
    41     8     4    1
    42    34    28   ar
    43    41    35   ar
    44     1     2    1
@<TRIPOS>MOLECULE
*****
 41 44 0 0 0
SMALL
GASTEIGER

@<TRIPOS>ATOM
      1 N         142.6727  137.6337  162.0702 N.3     1  UNL1       -0.2974
      2 H         142.9331  138.6001  162.2670 H       1  UNL1        0.1232
      3 C         142.6071  137.4983  160.5778 C.3     1  UNL1        0.0700
      4 N         141.9229  140.9648  158.9713 N.3     1  UNL1       -0.2689
      5 C         142.5596  140.2350  157.8258 C.3     1  UNL1        0.0725
      6 C         142.8934  138.8477  158.2882 C.3     1  UNL1        0.0201
      7 C         142.4630  138.7199  159.7194 C.3     1  UNL1        0.0331
      8 C         141.8632  140.0284  160.1416 C.3     1  UNL1        0.0738
      9 C         141.4321  142.3821  158.9501 C.3     1  UNL1        0.0993
     10 C         141.0080  144.5880  162.2219 C.ar    1  UNL1        0.1752
     11 C         141.6098  143.9842  160.9877 C.ar    1  UNL1        0.0373
     12 C         140.8302  142.9858  160.1844 C.ar    1  UNL1        0.0001
     13 C         139.4487  142.5911  160.6153 C.ar    1  UNL1        0.0373
     14 C         138.8469  143.1948  161.8495 C.ar    1  UNL1        0.1752
     15 C         139.6266  144.1932  162.6528 C.ar    1  UNL1        0.2060
     16 C         142.9203  145.1286  163.8954 C.3     1  UNL1        0.2526
     17 O         141.7877  145.5864  163.0252 O.3     1  UNL1       -0.4683
     18 O         137.4654  142.8001  162.2805 O.3     1  UNL1       -0.4683
     19 C         137.2563  141.5399  163.0667 C.3     1  UNL1        0.2526
     20 O         139.0247  144.7970  163.8871 O.3     1  UNL1       -0.4654
     21 C         139.1106  144.0698  165.1962 C.3     1  UNL1        0.2528
     22 C         141.4630  137.3328  162.9045 C.3     1  UNL1        0.0686
     23 C         140.1129  137.8227  162.4721 C.3     1  UNL1        0.0171
     24 C         138.9872  137.8898  163.4613 C.3     1  UNL1        0.0014
     25 C         139.2828  137.9590  164.9303 C.3     1  UNL1        0.0007
     26 C         139.0183  139.2252  165.6898 C.3     1  UNL1        0.0087
     27 C         140.1648  140.0536  166.1892 C.3     1  UNL1        0.0446
     28 C         141.4164  140.1725  165.3712 C.ar    1  UNL1       -0.0183
     29 C         142.6441  139.4048  165.7630 C.ar    1  UNL1       -0.0017
     30 C         143.8958  139.5237  164.9449 C.ar    1  UNL1        0.0293
     31 C         143.9199  140.4102  163.7352 C.ar    1  UNL1        0.1401
     32 F         145.1716  140.5290  162.9172 F       1  UNL1       -0.2042
     33 C         142.6922  141.1779  163.3434 C.ar    1  UNL1        0.0293
     34 C         141.4404  141.0590  164.1615 C.ar    1  UNL1       -0.0017
     35 C         140.0595  140.7630  167.5066 C.ar    1  UNL1       -0.0183
     36 C         139.3034  140.1338  168.6390 C.ar    1  UNL1       -0.0017
     37 C         139.1981  140.8433  169.9565 C.ar    1  UNL1        0.0293
     38 C         139.8490  142.1820  170.1415 C.ar    1  UNL1        0.1401
     39 F         139.7437  142.8915  171.4589 F       1  UNL1       -0.2042
     40 C         140.6051  142.8113  169.0090 C.ar    1  UNL1        0.0293
     41 C         140.7103  142.1018  167.6916 C.ar    1  UNL1       -0.0017
@<TRIPOS>BOND
     1    16    17    1
     2    17    10    1
     3    10    11   ar
     4    11    12   ar
     5    12     9    1
     6     9     4    1
     7     4     5    1
     8     5     6    1
     9     6     7    1
    10     7     3    1
    11     3     1    1
    12     1    22    1
    13    22    23    1
    14    23    24    1
    15    24    25    1
    16    25    26    1
    17    26    27    1
    18    27    28    1
    19    28    29   ar
    20    29    30   ar
    21    30    31   ar
    22    31    32    1
    23    31    33   ar
    24    33    34   ar
    25    27    35    1
    26    35    36   ar
    27    36    37   ar
    28    37    38   ar
    29    38    39    1
    30    38    40   ar
    31    40    41   ar
    32     7     8    1
    33    12    13   ar
    34    13    14   ar
    35    14    18    1
    36    18    19    1
    37    14    15   ar
    38    15    20    1
    39    20    21    1
    40    15    10   ar
    41     8     4    1
    42    34    28   ar
    43    41    35   ar
    44     1     2    1
@<TRIPOS>MOLECULE
*****
 41 44 0 0 0
SMALL
GASTEIGER

@<TRIPOS>ATOM
      1 N         142.5911  144.8315  161.1182 N.3     1  UNL1       -0.2974
      2 H         142.4777  145.8016  160.8240 H       1  UNL1        0.1232
      3 C         142.1787  143.9759  159.9572 C.3     1  UNL1        0.0700
      4 N         143.2382  140.2551  160.2719 N.3     1  UNL1       -0.2689
      5 C         143.8633  140.6245  158.9594 C.3     1  UNL1        0.0725
      6 C         143.5425  142.0633  158.6817 C.3     1  UNL1        0.0201
      7 C         142.7191  142.5831  159.8227 C.3     1  UNL1        0.0331
      8 C         142.5311  141.4656  160.8055 C.3     1  UNL1        0.0738
      9 C         143.3080  138.9113  160.9346 C.3     1  UNL1        0.0993
     10 C         141.8453  138.2823  164.5698 C.ar    1  UNL1        0.1752
     11 C         142.8023  138.6252  163.4669 C.ar    1  UNL1        0.0373
     12 C         142.3509  138.5683  162.0376 C.ar    1  UNL1        0.0001
     13 C         140.9426  138.1684  161.7112 C.ar    1  UNL1        0.0373
     14 C         139.9856  137.8255  162.8141 C.ar    1  UNL1        0.1752
     15 C         140.4370  137.8824  164.2434 C.ar    1  UNL1        0.2060
     16 C         143.7557  138.2295  166.3299 C.3     1  UNL1        0.2526
     17 O         142.2967  138.3392  165.9992 O.3     1  UNL1       -0.4683
     18 O         138.5771  137.4256  162.4877 O.3     1  UNL1       -0.4683
     19 C         137.6739  138.3819  161.7669 C.3     1  UNL1        0.2526
     20 O         139.4799  137.5395  165.3464 O.3     1  UNL1       -0.4654
     21 C         138.4641  138.5465  165.7981 C.3     1  UNL1        0.2528
     22 C         141.8903  144.6944  162.4373 C.3     1  UNL1        0.0686
     23 C         142.5663  145.1495  163.6965 C.3     1  UNL1        0.0171
     24 C         143.6828  144.3380  164.2839 C.3     1  UNL1        0.0014
     25 C         143.5817  142.8419  164.3243 C.3     1  UNL1        0.0007
     26 C         143.2733  142.1457  165.6167 C.3     1  UNL1        0.0087
     27 C         141.8608  142.0855  166.1177 C.3     1  UNL1        0.0446
     28 C         140.7230  142.4023  165.1932 C.ar    1  UNL1       -0.0183
     29 C         140.4717  141.5416  163.9907 C.ar    1  UNL1       -0.0017
     30 C         139.3338  141.8585  163.0660 C.ar    1  UNL1        0.0293
     31 C         138.4472  143.0361  163.3439 C.ar    1  UNL1        0.1401
     32 F         137.3094  143.3529  162.4193 F       1  UNL1       -0.2042
     33 C         138.6985  143.8968  164.5464 C.ar    1  UNL1        0.0293
     34 C         139.8364  143.5799  165.4711 C.ar    1  UNL1       -0.0017
     35 C         141.5861  141.7084  167.5433 C.ar    1  UNL1       -0.0183
     36 C         142.3872  142.3269  168.6504 C.ar    1  UNL1       -0.0017
     37 C         142.1125  141.9498  170.0761 C.ar    1  UNL1        0.0293
     38 C         141.0367  140.9541  170.3946 C.ar    1  UNL1        0.1401
     39 F         140.7621  140.5770  171.8202 F       1  UNL1       -0.2042
     40 C         140.2357  140.3356  169.2874 C.ar    1  UNL1        0.0293
     41 C         140.5103  140.7127  167.8618 C.ar    1  UNL1       -0.0017
@<TRIPOS>BOND
     1    16    17    1
     2    17    10    1
     3    10    11   ar
     4    11    12   ar
     5    12     9    1
     6     9     4    1
     7     4     5    1
     8     5     6    1
     9     6     7    1
    10     7     3    1
    11     3     1    1
    12     1    22    1
    13    22    23    1
    14    23    24    1
    15    24    25    1
    16    25    26    1
    17    26    27    1
    18    27    28    1
    19    28    29   ar
    20    29    30   ar
    21    30    31   ar
    22    31    32    1
    23    31    33   ar
    24    33    34   ar
    25    27    35    1
    26    35    36   ar
    27    36    37   ar
    28    37    38   ar
    29    38    39    1
    30    38    40   ar
    31    40    41   ar
    32     7     8    1
    33    12    13   ar
    34    13    14   ar
    35    14    18    1
    36    18    19    1
    37    14    15   ar
    38    15    20    1
    39    20    21    1
    40    15    10   ar
    41     8     4    1
    42    34    28   ar
    43    41    35   ar
    44     1     2    1
@<TRIPOS>MOLECULE
*****
 41 44 0 0 0
SMALL
GASTEIGER

@<TRIPOS>ATOM
      1 N         137.4285  139.1457  161.8462 N.3     1  UNL1       -0.2974
      2 H         136.4686  138.8529  162.0284 H       1  UNL1        0.1232
      3 C         137.4645  139.6602  160.4377 C.3     1  UNL1        0.0700
      4 N         141.0355  140.6294  159.2655 N.3     1  UNL1       -0.2689
      5 C         140.5765  139.7753  158.1210 C.3     1  UNL1        0.0725
      6 C         139.1830  139.3082  158.4208 C.3     1  UNL1        0.0201
      7 C         138.7806  139.8737  159.7506 C.3     1  UNL1        0.0331
      8 C         139.9256  140.6902  160.2726 C.3     1  UNL1        0.0738
      9 C         142.3700  141.3041  159.3823 C.3     1  UNL1        0.0993
     10 C         143.8969  143.3641  162.4113 C.ar    1  UNL1        0.1752
     11 C         143.3376  143.0375  161.0584 C.ar    1  UNL1        0.0373
     12 C         142.9294  141.6307  160.7353 C.ar    1  UNL1        0.0001
     13 C         143.0806  140.5506  161.7650 C.ar    1  UNL1        0.0373
     14 C         143.6400  140.8773  163.1179 C.ar    1  UNL1        0.1752
     15 C         144.0481  142.2840  163.4411 C.ar    1  UNL1        0.2060
     16 C         143.5234  145.5672  163.7369 C.3     1  UNL1        0.2526
     17 O         144.3051  144.7709  162.7345 O.3     1  UNL1       -0.4683
     18 O         143.7912  139.7971  164.1478 O.3     1  UNL1       -0.4683
     19 C         145.1521  139.2579  164.4748 C.3     1  UNL1        0.2526
     20 O         144.6075  142.6106  164.7941 O.3     1  UNL1       -0.4654
     21 C         143.6965  142.6898  165.9831 C.3     1  UNL1        0.2528
     22 C         138.3135  138.0040  162.2505 C.3     1  UNL1        0.0686
     23 C         139.6175  138.2739  162.9409 C.3     1  UNL1        0.0171
     24 C         139.8532  137.7544  164.3282 C.3     1  UNL1        0.0014
     25 C         138.7336  137.7462  165.3264 C.3     1  UNL1        0.0007
     26 C         138.1905  139.0407  165.8549 C.3     1  UNL1        0.0087
     27 C         139.1258  140.1619  166.1986 C.3     1  UNL1        0.0446
     28 C         139.0577  141.4544  165.4405 C.ar    1  UNL1       -0.0183
     29 C         138.1052  141.6003  164.2910 C.ar    1  UNL1       -0.0017
     30 C         138.0371  142.8929  163.5328 C.ar    1  UNL1        0.0293
     31 C         138.9215  144.0394  163.9242 C.ar    1  UNL1        0.1401
     32 F         138.8534  145.3319  163.1660 F       1  UNL1       -0.2042
     33 C         139.8741  143.8935  165.0737 C.ar    1  UNL1        0.0293
     34 C         139.9422  142.6009  165.8319 C.ar    1  UNL1       -0.0017
     35 C         140.1291  139.9906  167.3004 C.ar    1  UNL1       -0.0183
     36 C         139.7002  140.1191  168.7320 C.ar    1  UNL1       -0.0017
     37 C         140.7036  139.9477  169.8338 C.ar    1  UNL1        0.0293
     38 C         142.1358  139.6478  169.5040 C.ar    1  UNL1        0.1401
     39 F         143.1392  139.4765  170.6058 F       1  UNL1       -0.2042
     40 C         142.5647  139.5193  168.0723 C.ar    1  UNL1        0.0293
     41 C         141.5614  139.6907  166.9705 C.ar    1  UNL1       -0.0017
@<TRIPOS>BOND
     1    16    17    1
     2    17    10    1
     3    10    11   ar
     4    11    12   ar
     5    12     9    1
     6     9     4    1
     7     4     5    1
     8     5     6    1
     9     6     7    1
    10     7     3    1
    11     3     1    1
    12     1    22    1
    13    22    23    1
    14    23    24    1
    15    24    25    1
    16    25    26    1
    17    26    27    1
    18    27    28    1
    19    28    29   ar
    20    29    30   ar
    21    30    31   ar
    22    31    32    1
    23    31    33   ar
    24    33    34   ar
    25    27    35    1
    26    35    36   ar
    27    36    37   ar
    28    37    38   ar
    29    38    39    1
    30    38    40   ar
    31    40    41   ar
    32     7     8    1
    33    12    13   ar
    34    13    14   ar
    35    14    18    1
    36    18    19    1
    37    14    15   ar
    38    15    20    1
    39    20    21    1
    40    15    10   ar
    41     8     4    1
    42    34    28   ar
    43    41    35   ar
    44     1     2    1
@<TRIPOS>MOLECULE
*****
 41 44 0 0 0
SMALL
GASTEIGER

@<TRIPOS>ATOM
      1 N         143.1134  138.2050  162.3144 N.3     1  UNL1       -0.2974
      2 H         142.4697  138.4493  161.5619 H       1  UNL1        0.1232
      3 C         142.2806  137.9859  163.5426 C.3     1  UNL1        0.0700
      4 N         138.8100  139.6424  163.0173 N.3     1  UNL1       -0.2689
      5 C         138.6437  139.0483  164.3846 C.3     1  UNL1        0.0725
      6 C         139.9235  138.3555  164.7478 C.3     1  UNL1        0.0201
      7 C         140.8809  138.5213  163.6050 C.3     1  UNL1        0.0331
      8 C         140.1926  139.3167  162.5356 C.3     1  UNL1        0.0738
      9 C         137.7753  140.4248  162.2642 C.3     1  UNL1        0.0993
     10 C         138.9938  142.9893  159.4913 C.ar    1  UNL1        0.1752
     11 C         138.6618  142.4024  160.8312 C.ar    1  UNL1        0.0373
     12 C         138.1073  141.0118  160.9242 C.ar    1  UNL1        0.0001
     13 C         137.8847  140.2081  159.6774 C.ar    1  UNL1        0.0373
     14 C         138.2166  140.7951  158.3376 C.ar    1  UNL1        0.1752
     15 C         138.7712  142.1857  158.2445 C.ar    1  UNL1        0.2060
     16 C         141.0311  144.5923  159.3194 C.3     1  UNL1        0.2526
     17 O         139.5484  144.3799  159.3983 O.3     1  UNL1       -0.4683
     18 O         137.9940  139.9914  157.0907 O.3     1  UNL1       -0.4683
     19 C         139.1483  139.2996  156.4282 C.3     1  UNL1        0.2526
     20 O         139.1031  142.7726  156.9046 O.3     1  UNL1       -0.4654
     21 C         138.0253  143.4054  156.0751 C.3     1  UNL1        0.2528
     22 C         144.1928  139.2466  162.3161 C.3     1  UNL1        0.0686
     23 C         143.8937  140.6358  162.7959 C.3     1  UNL1        0.0171
     24 C         144.8803  141.3579  163.6650 C.3     1  UNL1        0.0014
     25 C         144.7055  142.8217  163.9418 C.3     1  UNL1        0.0007
     26 C         144.0902  143.2725  165.2334 C.3     1  UNL1        0.0087
     27 C         142.7886  142.6833  165.6901 C.3     1  UNL1        0.0446
     28 C         141.4992  143.1535  165.0850 C.ar    1  UNL1       -0.0183
     29 C         141.4811  144.3737  164.2128 C.ar    1  UNL1       -0.0017
     30 C         140.1915  144.8440  163.6076 C.ar    1  UNL1        0.0293
     31 C         138.9202  144.0941  163.8748 C.ar    1  UNL1        0.1401
     32 F         137.6308  144.5644  163.2696 F       1  UNL1       -0.2042
     33 C         138.9383  142.8738  164.7470 C.ar    1  UNL1        0.0293
     34 C         140.2279  142.4036  165.3521 C.ar    1  UNL1       -0.0017
     35 C         142.7765  141.6238  166.7518 C.ar    1  UNL1       -0.0183
     36 C         142.7673  142.0136  168.2002 C.ar    1  UNL1       -0.0017
     37 C         142.7552  140.9541  169.2621 C.ar    1  UNL1        0.0293
     38 C         142.7522  139.5048  168.8754 C.ar    1  UNL1        0.1401
     39 F         142.7401  138.4453  169.9371 F       1  UNL1       -0.2042
     40 C         142.7614  139.1150  167.4269 C.ar    1  UNL1        0.0293
     41 C         142.7736  140.1745  166.3651 C.ar    1  UNL1       -0.0017
@<TRIPOS>BOND
     1    16    17    1
     2    17    10    1
     3    10    11   ar
     4    11    12   ar
     5    12     9    1
     6     9     4    1
     7     4     5    1
     8     5     6    1
     9     6     7    1
    10     7     3    1
    11     3     1    1
    12     1    22    1
    13    22    23    1
    14    23    24    1
    15    24    25    1
    16    25    26    1
    17    26    27    1
    18    27    28    1
    19    28    29   ar
    20    29    30   ar
    21    30    31   ar
    22    31    32    1
    23    31    33   ar
    24    33    34   ar
    25    27    35    1
    26    35    36   ar
    27    36    37   ar
    28    37    38   ar
    29    38    39    1
    30    38    40   ar
    31    40    41   ar
    32     7     8    1
    33    12    13   ar
    34    13    14   ar
    35    14    18    1
    36    18    19    1
    37    14    15   ar
    38    15    20    1
    39    20    21    1
    40    15    10   ar
    41     8     4    1
    42    34    28   ar
    43    41    35   ar
    44     1     2    1
@<TRIPOS>MOLECULE
*****
 41 44 0 0 0
SMALL
GASTEIGER

@<TRIPOS>ATOM
      1 N         142.4982  144.8023  161.0996 N.3     1  UNL1       -0.2974
      2 H         142.4665  145.7899  160.8466 H       1  UNL1        0.1232
      3 C         142.1137  144.0286  159.8734 C.3     1  UNL1        0.0700
      4 N         143.2113  140.3061  159.9346 N.3     1  UNL1       -0.2689
      5 C         143.8543  140.7770  158.6639 C.3     1  UNL1        0.0725
      6 C         143.5214  142.2288  158.4862 C.3     1  UNL1        0.0201
      7 C         142.6726  142.6552  159.6472 C.3     1  UNL1        0.0331
      8 C         142.4810  141.4669  160.5424 C.3     1  UNL1        0.0738
      9 C         143.2856  138.9182  160.4986 C.3     1  UNL1        0.0993
     10 C         141.9833  137.9327  164.1157 C.ar    1  UNL1        0.1752
     11 C         142.9024  138.3401  163.0024 C.ar    1  UNL1        0.0373
     12 C         142.3664  138.5108  161.6119 C.ar    1  UNL1        0.0001
     13 C         140.9114  138.2742  161.3346 C.ar    1  UNL1        0.0373
     14 C         139.9924  137.8669  162.4479 C.ar    1  UNL1        0.1752
     15 C         140.5283  137.6961  163.8384 C.ar    1  UNL1        0.2060
     16 C         143.1842  138.9135  166.2004 C.3     1  UNL1        0.2526
     17 O         142.5193  137.7620  165.5062 O.3     1  UNL1       -0.4683
     18 O         138.5373  137.6303  162.1706 O.3     1  UNL1       -0.4683
     19 C         137.6533  138.7756  161.7747 C.3     1  UNL1        0.2526
     20 O         139.6092  137.2888  164.9517 O.3     1  UNL1       -0.4654
     21 C         138.7927  138.3241  165.6669 C.3     1  UNL1        0.2528
     22 C         141.7011  144.6528  162.3614 C.3     1  UNL1        0.0686
     23 C         142.1568  145.3281  163.6208 C.3     1  UNL1        0.0171
     24 C         143.3529  144.8067  164.3609 C.3     1  UNL1        0.0014
     25 C         143.5526  143.3283  164.5168 C.3     1  UNL1        0.0007
     26 C         143.2856  142.6706  165.8382 C.3     1  UNL1        0.0087
     27 C         141.8793  142.3364  166.2392 C.3     1  UNL1        0.0446
     28 C         141.5794  141.9252  167.6501 C.ar    1  UNL1       -0.0183
     29 C         142.4727  142.3745  168.7682 C.ar    1  UNL1       -0.0017
     30 C         142.1728  141.9633  170.1793 C.ar    1  UNL1        0.0293
     31 C         140.9796  141.1028  170.4722 C.ar    1  UNL1        0.1401
     32 F         140.6797  140.6916  171.8833 F       1  UNL1       -0.2042
     33 C         140.0862  140.6535  169.3541 C.ar    1  UNL1        0.0293
     34 C         140.3862  141.0648  167.9430 C.ar    1  UNL1       -0.0017
     35 C         140.7730  142.4135  165.2291 C.ar    1  UNL1       -0.0183
     36 C         140.7457  141.4587  164.0725 C.ar    1  UNL1       -0.0017
     37 C         139.6393  141.5358  163.0624 C.ar    1  UNL1        0.0293
     38 C         138.5604  142.5675  163.2090 C.ar    1  UNL1        0.1401
     39 F         137.4542  142.6446  162.1989 F       1  UNL1       -0.2042
     40 C         138.5879  143.5223  164.3657 C.ar    1  UNL1        0.0293
     41 C         139.6941  143.4453  165.3757 C.ar    1  UNL1       -0.0017
@<TRIPOS>BOND
     1    16    17    1
     2    17    10    1
     3    10    11   ar
     4    11    12   ar
     5    12     9    1
     6     9     4    1
     7     4     5    1
     8     5     6    1
     9     6     7    1
    10     7     3    1
    11     3     1    1
    12     1    22    1
    13    22    23    1
    14    23    24    1
    15    24    25    1
    16    25    26    1
    17    26    27    1
    18    27    28    1
    19    28    29   ar
    20    29    30   ar
    21    30    31   ar
    22    31    32    1
    23    31    33   ar
    24    33    34   ar
    25    27    35    1
    26    35    36   ar
    27    36    37   ar
    28    37    38   ar
    29    38    39    1
    30    38    40   ar
    31    40    41   ar
    32     7     8    1
    33    12    13   ar
    34    13    14   ar
    35    14    18    1
    36    18    19    1
    37    14    15   ar
    38    15    20    1
    39    20    21    1
    40    15    10   ar
    41     8     4    1
    42    34    28   ar
    43    41    35   ar
    44     1     2    1
