@<TRIPOS>MOLECULE
*****
 35 39 0 0 0
SMALL
GASTEIGER

@<TRIPOS>ATOM
      1 C         138.7171  139.8994  164.9389 C.ar    1  UNL1        0.0016
      2 C         137.9402  139.0631  165.9120 C.ar    1  UNL1        0.0016
      3 C         138.3119  139.0637  167.3652 C.ar    1  UNL1        0.0192
      4 C         139.4604  139.9006  167.8453 C.ar    1  UNL1        0.0845
      5 N         139.8320  139.9011  169.2986 N.ar    1  UNL1       -0.2240
      6 C         140.9806  140.7380  169.7786 C.ar    1  UNL1        0.1988
      7 N         141.7575  141.5743  168.8054 N.ar    1  UNL1       -0.2240
      8 C         141.3859  141.5737  167.3522 C.ar    1  UNL1        0.0844
      9 C         140.2373  140.7368  166.8722 C.ar    1  UNL1        0.0354
     10 C         139.8657  140.7363  165.4190 C.ar    1  UNL1        0.0030
     11 C         137.6023  139.8978  160.5791 C.ar    1  UNL1        0.2250
     12 C         138.1755  138.6621  161.2071 C.ar    1  UNL1        0.0577
     13 C         138.5471  138.6626  162.6604 C.ar    1  UNL1        0.0063
     14 C         138.3455  139.8988  163.4856 C.ar    1  UNL1        0.0194
     15 C         137.7723  141.1346  162.8576 C.ar    1  UNL1        0.1020
     16 N         137.4007  141.1341  161.4044 N.ar    1  UNL1       -0.2101
     17 C         138.1310  140.5532  158.1213 C.3     1  UNL1        0.2542
     18 O         137.2307  139.8973  159.1259 O.3     1  UNL1       -0.4561
     19 C         142.1628  142.4100  166.3791 C.ar    1  UNL1        0.0179
     20 C         143.6370  142.6096  166.5715 C.ar    1  UNL1        0.0015
     21 C         144.4139  143.4459  165.5983 C.ar    1  UNL1        0.0002
     22 C         143.7166  144.0826  164.4328 C.ar    1  UNL1        0.0045
     23 C         142.2425  143.8830  164.2405 C.ar    1  UNL1        0.0536
     24 C         141.4656  143.0468  165.2136 C.ar    1  UNL1        0.0060
     25 C         141.5452  144.5198  163.0749 C.2     1  UNL1        0.2491
     26 O         140.4183  145.4816  163.3093 O.2     1  UNL1       -0.2699
     27 N         141.9749  144.1948  161.6750 N.am    1  UNL1       -0.2726
     28 C         143.1019  143.2330  161.4407 C.3     1  UNL1        0.1152
     29 C         143.5316  142.9079  160.0408 C.3     1  UNL1        0.1149
     30 N         142.8344  143.5447  158.8752 N.am    1  UNL1       -0.2760
     31 C         143.2641  143.2197  157.4754 C.2     1  UNL1        0.2262
     32 C         144.3911  142.2579  157.2410 C.3     1  UNL1        0.0948
     33 O         142.5669  143.8564  156.3099 O.2     1  UNL1       -0.2749
     34 C         141.7074  144.5065  159.1096 C.3     1  UNL1        0.1149
     35 C         141.2777  144.8315  160.5096 C.3     1  UNL1        0.1152
@<TRIPOS>BOND
     1    17    18    1
     2    18    11    1
     3    11    12   ar
     4    12    13   ar
     5    13    14   ar
     6    14     1    1
     7     1     2   ar
     8     2     3   ar
     9     3     4   ar
    10     4     5   ar
    11     5     6   ar
    12     6     7   ar
    13     7     8   ar
    14     8    19    1
    15    19    20   ar
    16    20    21   ar
    17    21    22   ar
    18    22    23   ar
    19    23    25    1
    20    25    26    2
    21    25    27   am
    22    27    28    1
    23    28    29    1
    24    29    30    1
    25    30    31   am
    26    31    32    1
    27    31    33    2
    28    30    34    1
    29    34    35    1
    30    23    24   ar
    31     8     9   ar
    32     9    10   ar
    33    14    15   ar
    34    15    16   ar
    35    16    11   ar
    36    10     1   ar
    37     9     4   ar
    38    24    19   ar
    39    35    27    1
@<TRIPOS>MOLECULE
*****
 35 39 0 0 0
SMALL
GASTEIGER

@<TRIPOS>ATOM
      1 C         142.9459  139.6515  164.2097 C.ar    1  UNL1        0.0016
      2 C         143.6742  138.7088  165.1212 C.ar    1  UNL1        0.0016
      3 C         143.3617  138.6926  166.5882 C.ar    1  UNL1        0.0192
      4 C         142.3210  139.6190  167.1437 C.ar    1  UNL1        0.0845
      5 N         142.0085  139.6028  168.6107 N.ar    1  UNL1       -0.2240
      6 C         140.9677  140.5292  169.1662 C.ar    1  UNL1        0.1988
      7 N         140.2395  141.4720  168.2545 N.ar    1  UNL1       -0.2240
      8 C         140.5520  141.4882  166.7876 C.ar    1  UNL1        0.0844
      9 C         141.5927  140.5617  166.2321 C.ar    1  UNL1        0.0354
     10 C         141.9052  140.5780  164.7652 C.ar    1  UNL1        0.0030
     11 C         143.8833  139.7003  159.8086 C.ar    1  UNL1        0.2250
     12 C         143.3064  140.9188  160.4661 C.ar    1  UNL1        0.0577
     13 C         142.9939  140.9025  161.9332 C.ar    1  UNL1        0.0063
     14 C         143.2584  139.6678  162.7427 C.ar    1  UNL1        0.0194
     15 C         143.8354  138.4492  162.0852 C.ar    1  UNL1        0.1020
     16 N         144.1478  138.4655  160.6182 N.ar    1  UNL1       -0.2101
     17 C         144.5676  141.0042  157.6683 C.3     1  UNL1        0.2542
     18 O         144.1958  139.7165  158.3417 O.3     1  UNL1       -0.4561
     19 C         139.8237  142.4309  165.8761 C.ar    1  UNL1        0.0179
     20 C         139.5157  143.8265  166.3313 C.ar    1  UNL1        0.0015
     21 C         138.7874  144.7693  165.4197 C.ar    1  UNL1        0.0002
     22 C         138.3671  144.3163  164.0529 C.ar    1  UNL1        0.0045
     23 C         138.6751  142.9206  163.5977 C.ar    1  UNL1        0.0536
     24 C         139.4034  141.9779  164.5092 C.ar    1  UNL1        0.0060
     25 C         138.2548  142.4677  162.2308 C.2     1  UNL1        0.2491
     26 O         137.1669  141.4460  162.0809 O.2     1  UNL1       -0.2699
     27 N         138.9224  143.0364  161.0140 N.am    1  UNL1       -0.2726
     28 C         140.0104  144.0581  161.1639 C.3     1  UNL1        0.1152
     29 C         140.6780  144.6269  159.9471 C.3     1  UNL1        0.1149
     30 N         140.2577  144.1739  158.5802 N.am    1  UNL1       -0.2760
     31 C         140.9253  144.7427  157.3633 C.2     1  UNL1        0.2262
     32 C         142.0133  145.7644  157.5133 C.3     1  UNL1        0.0948
     33 O         140.5050  144.2897  155.9966 O.2     1  UNL1       -0.2749
     34 C         139.1698  143.1522  158.4303 C.3     1  UNL1        0.1149
     35 C         138.5021  142.5835  159.6472 C.3     1  UNL1        0.1152
@<TRIPOS>BOND
     1    17    18    1
     2    18    11    1
     3    11    12   ar
     4    12    13   ar
     5    13    14   ar
     6    14     1    1
     7     1     2   ar
     8     2     3   ar
     9     3     4   ar
    10     4     5   ar
    11     5     6   ar
    12     6     7   ar
    13     7     8   ar
    14     8    19    1
    15    19    20   ar
    16    20    21   ar
    17    21    22   ar
    18    22    23   ar
    19    23    25    1
    20    25    26    2
    21    25    27   am
    22    27    28    1
    23    28    29    1
    24    29    30    1
    25    30    31   am
    26    31    32    1
    27    31    33    2
    28    30    34    1
    29    34    35    1
    30    23    24   ar
    31     8     9   ar
    32     9    10   ar
    33    14    15   ar
    34    15    16   ar
    35    16    11   ar
    36    10     1   ar
    37     9     4   ar
    38    24    19   ar
    39    35    27    1
@<TRIPOS>MOLECULE
*****
 35 39 0 0 0
SMALL
GASTEIGER

@<TRIPOS>ATOM
      1 C         140.1716  138.6683  163.0059 C.ar    1  UNL1        0.0016
      2 C         139.3078  137.6431  163.6788 C.ar    1  UNL1        0.0016
      3 C         138.9375  137.8059  165.1232 C.ar    1  UNL1        0.0192
      4 C         139.4310  138.9939  165.8947 C.ar    1  UNL1        0.0845
      5 N         139.0606  139.1567  167.3391 N.ar    1  UNL1       -0.2240
      6 C         139.5540  140.3448  168.1106 C.ar    1  UNL1        0.1988
      7 N         140.4178  141.3700  167.4376 N.ar    1  UNL1       -0.2240
      8 C         140.7881  141.2071  165.9932 C.ar    1  UNL1        0.0844
      9 C         140.2947  140.0191  165.2217 C.ar    1  UNL1        0.0354
     10 C         140.6650  139.8563  163.7773 C.ar    1  UNL1        0.0030
     11 C         141.2827  138.1799  158.6726 C.ar    1  UNL1        0.2250
     12 C         139.8668  138.4977  159.0526 C.ar    1  UNL1        0.0577
     13 C         139.4965  138.6605  160.4971 C.ar    1  UNL1        0.0063
     14 C         140.5419  138.5055  161.5614 C.ar    1  UNL1        0.0194
     15 C         141.9578  138.1877  161.1814 C.ar    1  UNL1        0.1020
     16 N         142.3281  138.0249  159.7371 N.ar    1  UNL1       -0.2101
     17 C         142.5308  136.8776  156.8029 C.3     1  UNL1        0.2542
     18 O         141.6530  138.0171  157.2282 O.3     1  UNL1       -0.4561
     19 C         141.6519  142.2323  165.3203 C.ar    1  UNL1        0.0179
     20 C         143.0552  142.4610  165.7981 C.ar    1  UNL1        0.0015
     21 C         143.9190  143.4862  165.1251 C.ar    1  UNL1        0.0002
     22 C         143.3794  144.2828  163.9743 C.ar    1  UNL1        0.0045
     23 C         141.9760  144.0541  163.4965 C.ar    1  UNL1        0.0536
     24 C         141.1123  143.0289  164.1694 C.ar    1  UNL1        0.0060
     25 C         141.4365  144.8507  162.3456 C.2     1  UNL1        0.2491
     26 O         140.5082  146.0013  162.5997 O.2     1  UNL1       -0.2699
     27 N         141.8251  144.4966  160.9408 N.am    1  UNL1       -0.2726
     28 C         142.7533  143.3461  160.6867 C.3     1  UNL1        0.1152
     29 C         143.1419  142.9920  159.2819 C.3     1  UNL1        0.1149
     30 N         142.6024  143.7886  158.1310 N.am    1  UNL1       -0.2760
     31 C         142.9910  143.4346  156.7262 C.2     1  UNL1        0.2262
     32 C         143.9192  142.2840  156.4721 C.3     1  UNL1        0.0948
     33 O         142.4514  144.2312  155.5755 O.2     1  UNL1       -0.2749
     34 C         141.6741  144.9392  158.3851 C.3     1  UNL1        0.1149
     35 C         141.2855  145.2932  159.7900 C.3     1  UNL1        0.1152
@<TRIPOS>BOND
     1    17    18    1
     2    18    11    1
     3    11    12   ar
     4    12    13   ar
     5    13    14   ar
     6    14     1    1
     7     1     2   ar
     8     2     3   ar
     9     3     4   ar
    10     4     5   ar
    11     5     6   ar
    12     6     7   ar
    13     7     8   ar
    14     8    19    1
    15    19    20   ar
    16    20    21   ar
    17    21    22   ar
    18    22    23   ar
    19    23    25    1
    20    25    26    2
    21    25    27   am
    22    27    28    1
    23    28    29    1
    24    29    30    1
    25    30    31   am
    26    31    32    1
    27    31    33    2
    28    30    34    1
    29    34    35    1
    30    23    24   ar
    31     8     9   ar
    32     9    10   ar
    33    14    15   ar
    34    15    16   ar
    35    16    11   ar
    36    10     1   ar
    37     9     4   ar
    38    24    19   ar
    39    35    27    1
@<TRIPOS>MOLECULE
*****
 35 39 0 0 0
SMALL
GASTEIGER

@<TRIPOS>ATOM
      1 C         140.0347  143.0678  165.5420 C.ar    1  UNL1        0.0016
      2 C         138.9500  144.0996  165.6355 C.ar    1  UNL1        0.0016
      3 C         138.6958  145.0268  164.4841 C.ar    1  UNL1        0.0192
      4 C         139.5262  144.9221  163.2394 C.ar    1  UNL1        0.0845
      5 N         139.2719  145.8494  162.0880 N.ar    1  UNL1       -0.2240
      6 C         140.1023  145.7447  160.8432 C.ar    1  UNL1        0.1988
      7 N         141.1870  144.7128  160.7498 N.ar    1  UNL1       -0.2240
      8 C         141.4413  143.7856  161.9012 C.ar    1  UNL1        0.0844
      9 C         140.6109  143.8903  163.1459 C.ar    1  UNL1        0.0354
     10 C         140.8651  142.9631  164.2973 C.ar    1  UNL1        0.0030
     11 C         140.7976  140.2860  168.9961 C.ar    1  UNL1        0.2250
     12 C         141.3196  141.6917  169.0358 C.ar    1  UNL1        0.0577
     13 C         141.0653  142.6189  167.8844 C.ar    1  UNL1        0.0063
     14 C         140.2890  142.1405  166.6934 C.ar    1  UNL1        0.0194
     15 C         139.7670  140.7348  166.6538 C.ar    1  UNL1        0.1020
     16 N         140.0213  139.8076  167.8050 N.ar    1  UNL1       -0.2101
     17 C         142.3861  138.6885  170.2899 C.3     1  UNL1        0.2542
     18 O         141.0518  139.3588  170.1474 O.3     1  UNL1       -0.4561
     19 C         142.5259  142.7538  161.8077 C.ar    1  UNL1        0.0179
     20 C         143.9240  143.0948  162.2310 C.ar    1  UNL1        0.0015
     21 C         145.0087  142.0629  162.1375 C.ar    1  UNL1        0.0002
     22 C         144.6953  140.6901  161.6208 C.ar    1  UNL1        0.0045
     23 C         143.2973  140.3490  161.1975 C.ar    1  UNL1        0.0536
     24 C         142.2126  141.3809  161.2910 C.ar    1  UNL1        0.0060
     25 C         142.9839  138.9761  160.6808 C.2     1  UNL1        0.2491
     26 O         142.6452  137.8732  161.6394 O.2     1  UNL1       -0.2699
     27 N         143.0093  138.7061  159.2056 N.am    1  UNL1       -0.2726
     28 C         143.3480  139.8090  158.2470 C.3     1  UNL1        0.1152
     29 C         143.3734  139.5391  156.7717 C.3     1  UNL1        0.1149
     30 N         143.0600  138.1661  156.2550 N.am    1  UNL1       -0.2760
     31 C         143.0854  137.8961  154.7797 C.2     1  UNL1        0.2262
     32 C         143.4241  138.9990  153.8211 C.3     1  UNL1        0.0948
     33 O         142.7721  136.5233  154.2631 O.2     1  UNL1       -0.2749
     34 C         142.7213  137.0632  157.2136 C.3     1  UNL1        0.1149
     35 C         142.6959  137.3333  158.6889 C.3     1  UNL1        0.1152
@<TRIPOS>BOND
     1    17    18    1
     2    18    11    1
     3    11    12   ar
     4    12    13   ar
     5    13    14   ar
     6    14     1    1
     7     1     2   ar
     8     2     3   ar
     9     3     4   ar
    10     4     5   ar
    11     5     6   ar
    12     6     7   ar
    13     7     8   ar
    14     8    19    1
    15    19    20   ar
    16    20    21   ar
    17    21    22   ar
    18    22    23   ar
    19    23    25    1
    20    25    26    2
    21    25    27   am
    22    27    28    1
    23    28    29    1
    24    29    30    1
    25    30    31   am
    26    31    32    1
    27    31    33    2
    28    30    34    1
    29    34    35    1
    30    23    24   ar
    31     8     9   ar
    32     9    10   ar
    33    14    15   ar
    34    15    16   ar
    35    16    11   ar
    36    10     1   ar
    37     9     4   ar
    38    24    19   ar
    39    35    27    1
@<TRIPOS>MOLECULE
*****
 35 39 0 0 0
SMALL
GASTEIGER

@<TRIPOS>ATOM
      1 C         142.8717  139.6907  163.4394 C.ar    1  UNL1        0.0016
      2 C         143.8005  139.0775  164.4450 C.ar    1  UNL1        0.0016
      3 C         143.7089  139.4724  165.8891 C.ar    1  UNL1        0.0192
      4 C         142.6885  140.4806  166.3277 C.ar    1  UNL1        0.0845
      5 N         142.5969  140.8756  167.7719 N.ar    1  UNL1       -0.2240
      6 C         141.5765  141.8838  168.2104 C.ar    1  UNL1        0.1988
      7 N         140.6477  142.4971  167.2047 N.ar    1  UNL1       -0.2240
      8 C         140.7393  142.1021  165.7606 C.ar    1  UNL1        0.0844
      9 C         141.7597  141.0939  165.3221 C.ar    1  UNL1        0.0354
     10 C         141.8513  140.6989  163.8779 C.ar    1  UNL1        0.0030
     11 C         143.1465  138.5059  159.1068 C.ar    1  UNL1        0.2250
     12 C         143.6423  139.8506  159.5495 C.ar    1  UNL1        0.0577
     13 C         143.5507  140.2455  160.9937 C.ar    1  UNL1        0.0063
     14 C         142.9633  139.2958  161.9952 C.ar    1  UNL1        0.0194
     15 C         142.4676  137.9511  161.5525 C.ar    1  UNL1        0.1020
     16 N         142.5591  137.5561  160.1084 N.ar    1  UNL1       -0.2101
     17 C         142.7811  136.7503  157.2269 C.3     1  UNL1        0.2542
     18 O         143.2381  138.1109  157.6627 O.3     1  UNL1       -0.4561
     19 C         139.8105  142.7153  164.7550 C.ar    1  UNL1        0.0179
     20 C         138.3455  142.3958  164.7945 C.ar    1  UNL1        0.0015
     21 C         137.4167  143.0092  163.7888 C.ar    1  UNL1        0.0002
     22 C         137.9530  143.9419  162.7437 C.ar    1  UNL1        0.0045
     23 C         139.4180  144.2614  162.7042 C.ar    1  UNL1        0.0536
     24 C         140.3468  143.6482  163.7098 C.ar    1  UNL1        0.0060
     25 C         139.9543  145.1942  161.6590 C.2     1  UNL1        0.2491
     26 O         139.8859  146.6775  161.8714 O.2     1  UNL1       -0.2699
     27 N         140.5589  144.6437  160.4015 N.am    1  UNL1       -0.2726
     28 C         140.6273  143.1604  160.1891 C.3     1  UNL1        0.1152
     29 C         141.2319  142.6098  158.9316 C.3     1  UNL1        0.1149
     30 N         141.7681  143.5426  157.8864 N.am    1  UNL1       -0.2760
     31 C         142.3727  142.9921  156.6289 C.2     1  UNL1        0.2262
     32 C         142.4411  141.5088  156.4165 C.3     1  UNL1        0.0948
     33 O         142.9089  143.9249  155.5838 O.2     1  UNL1       -0.2749
     34 C         141.6998  145.0260  158.0988 C.3     1  UNL1        0.1149
     35 C         141.0951  145.5765  159.3564 C.3     1  UNL1        0.1152
@<TRIPOS>BOND
     1    17    18    1
     2    18    11    1
     3    11    12   ar
     4    12    13   ar
     5    13    14   ar
     6    14     1    1
     7     1     2   ar
     8     2     3   ar
     9     3     4   ar
    10     4     5   ar
    11     5     6   ar
    12     6     7   ar
    13     7     8   ar
    14     8    19    1
    15    19    20   ar
    16    20    21   ar
    17    21    22   ar
    18    22    23   ar
    19    23    25    1
    20    25    26    2
    21    25    27   am
    22    27    28    1
    23    28    29    1
    24    29    30    1
    25    30    31   am
    26    31    32    1
    27    31    33    2
    28    30    34    1
    29    34    35    1
    30    23    24   ar
    31     8     9   ar
    32     9    10   ar
    33    14    15   ar
    34    15    16   ar
    35    16    11   ar
    36    10     1   ar
    37     9     4   ar
    38    24    19   ar
    39    35    27    1
@<TRIPOS>MOLECULE
*****
 35 39 0 0 0
SMALL
GASTEIGER

@<TRIPOS>ATOM
      1 C         141.0569  141.1045  158.9944 C.ar    1  UNL1        0.0016
      2 C         139.9525  141.8770  158.3360 C.ar    1  UNL1        0.0016
      3 C         139.5070  143.1880  158.9129 C.ar    1  UNL1        0.0192
      4 C         140.1659  143.7264  160.1482 C.ar    1  UNL1        0.0845
      5 N         139.7203  145.0374  160.7251 N.ar    1  UNL1       -0.2240
      6 C         140.3792  145.5758  161.9605 C.ar    1  UNL1        0.1988
      7 N         141.4836  144.8032  162.6189 N.ar    1  UNL1       -0.2240
      8 C         141.9291  143.4923  162.0419 C.ar    1  UNL1        0.0844
      9 C         141.2702  142.9538  160.8066 C.ar    1  UNL1        0.0354
     10 C         141.7157  141.6429  160.2297 C.ar    1  UNL1        0.0030
     11 C         142.3935  137.1714  157.2637 C.ar    1  UNL1        0.2250
     12 C         141.3951  138.0144  156.5271 C.ar    1  UNL1        0.0577
     13 C         140.9496  139.3254  157.1040 C.ar    1  UNL1        0.0063
     14 C         141.5024  139.7934  158.4175 C.ar    1  UNL1        0.0194
     15 C         142.5009  138.9505  159.1541 C.ar    1  UNL1        0.1020
     16 N         142.9464  137.6395  158.5773 N.ar    1  UNL1       -0.2101
     17 C         141.9034  135.0622  155.8282 C.3     1  UNL1        0.2542
     18 O         142.8391  135.8605  156.6869 O.3     1  UNL1       -0.4561
     19 C         143.0335  142.7197  162.7003 C.ar    1  UNL1        0.0179
     20 C         144.4552  142.9301  162.2711 C.ar    1  UNL1        0.0015
     21 C         145.5596  142.1575  162.9295 C.ar    1  UNL1        0.0002
     22 C         145.2422  141.1746  164.0172 C.ar    1  UNL1        0.0045
     23 C         143.8204  140.9642  164.4465 C.ar    1  UNL1        0.0536
     24 C         142.7161  141.7368  163.7881 C.ar    1  UNL1        0.0060
     25 C         143.5030  139.9812  165.5342 C.2     1  UNL1        0.2491
     26 O         143.9525  138.5555  165.4112 O.2     1  UNL1       -0.2699
     27 N         142.7362  140.4241  166.7449 N.am    1  UNL1       -0.2726
     28 C         142.2867  141.8498  166.8679 C.3     1  UNL1        0.1152
     29 C         141.5198  142.2926  168.0786 C.3     1  UNL1        0.1149
     30 N         141.2024  141.3097  169.1664 N.am    1  UNL1       -0.2760
     31 C         140.4356  141.7525  170.3771 C.2     1  UNL1        0.2262
     32 C         139.9861  143.1783  170.5001 C.3     1  UNL1        0.0948
     33 O         140.1182  140.7695  171.4647 O.2     1  UNL1       -0.2749
     34 C         141.6519  139.8839  169.0433 C.3     1  UNL1        0.1149
     35 C         142.4188  139.4411  167.8326 C.3     1  UNL1        0.1152
@<TRIPOS>BOND
     1    17    18    1
     2    18    11    1
     3    11    12   ar
     4    12    13   ar
     5    13    14   ar
     6    14     1    1
     7     1     2   ar
     8     2     3   ar
     9     3     4   ar
    10     4     5   ar
    11     5     6   ar
    12     6     7   ar
    13     7     8   ar
    14     8    19    1
    15    19    20   ar
    16    20    21   ar
    17    21    22   ar
    18    22    23   ar
    19    23    25    1
    20    25    26    2
    21    25    27   am
    22    27    28    1
    23    28    29    1
    24    29    30    1
    25    30    31   am
    26    31    32    1
    27    31    33    2
    28    30    34    1
    29    34    35    1
    30    23    24   ar
    31     8     9   ar
    32     9    10   ar
    33    14    15   ar
    34    15    16   ar
    35    16    11   ar
    36    10     1   ar
    37     9     4   ar
    38    24    19   ar
    39    35    27    1
@<TRIPOS>MOLECULE
*****
 35 39 0 0 0
SMALL
GASTEIGER

@<TRIPOS>ATOM
      1 C         143.0718  142.8406  163.9627 C.ar    1  UNL1        0.0016
      2 C         144.1335  143.7034  164.5776 C.ar    1  UNL1        0.0016
      3 C         144.3877  143.6418  166.0546 C.ar    1  UNL1        0.0192
      4 C         143.5801  142.7174  166.9167 C.ar    1  UNL1        0.0845
      5 N         143.8343  142.6558  168.3937 N.ar    1  UNL1       -0.2240
      6 C         143.0267  141.7313  169.2558 C.ar    1  UNL1        0.1988
      7 N         141.9650  140.8685  168.6408 N.ar    1  UNL1       -0.2240
      8 C         141.7108  140.9301  167.1638 C.ar    1  UNL1        0.0844
      9 C         142.5184  141.8545  166.3018 C.ar    1  UNL1        0.0354
     10 C         142.2642  141.9161  164.8248 C.ar    1  UNL1        0.0030
     11 C         142.3092  143.0254  159.5315 C.ar    1  UNL1        0.2250
     12 C         142.4779  141.6976  160.2088 C.ar    1  UNL1        0.0577
     13 C         142.7321  141.6361  161.6859 C.ar    1  UNL1        0.0063
     14 C         142.8176  142.9022  162.4856 C.ar    1  UNL1        0.0194
     15 C         142.6488  144.2299  161.8084 C.ar    1  UNL1        0.1020
     16 N         142.3946  144.2915  160.3314 N.ar    1  UNL1       -0.2101
     17 C         143.1599  142.7739  157.0897 C.3     1  UNL1        0.2542
     18 O         142.0550  143.0870  158.0546 O.3     1  UNL1       -0.4561
     19 C         140.6490  140.0672  166.5489 C.ar    1  UNL1        0.0179
     20 C         139.3720  139.8059  167.2912 C.ar    1  UNL1        0.0015
     21 C         138.3102  138.9430  166.6762 C.ar    1  UNL1        0.0002
     22 C         138.5255  138.3415  165.3191 C.ar    1  UNL1        0.0045
     23 C         139.8026  138.6028  164.5769 C.ar    1  UNL1        0.0536
     24 C         140.8643  139.4657  165.1918 C.ar    1  UNL1        0.0060
     25 C         140.0178  138.0013  163.2197 C.2     1  UNL1        0.2491
     26 O         140.5360  136.5992  163.0944 O.2     1  UNL1       -0.2699
     27 N         139.7150  138.8018  161.9879 N.am    1  UNL1       -0.2726
     28 C         139.1968  140.2039  162.1132 C.3     1  UNL1        0.1152
     29 C         138.8940  141.0044  160.8814 C.3     1  UNL1        0.1149
     30 N         139.1093  140.4028  159.5242 N.am    1  UNL1       -0.2760
     31 C         138.8064  141.2034  158.2924 C.2     1  UNL1        0.2262
     32 C         138.2883  142.6055  158.4176 C.3     1  UNL1        0.0948
     33 O         139.0217  140.6018  156.9353 O.2     1  UNL1       -0.2749
     34 C         139.6274  139.0008  159.3989 C.3     1  UNL1        0.1149
     35 C         139.9302  138.2002  160.6308 C.3     1  UNL1        0.1152
@<TRIPOS>BOND
     1    17    18    1
     2    18    11    1
     3    11    12   ar
     4    12    13   ar
     5    13    14   ar
     6    14     1    1
     7     1     2   ar
     8     2     3   ar
     9     3     4   ar
    10     4     5   ar
    11     5     6   ar
    12     6     7   ar
    13     7     8   ar
    14     8    19    1
    15    19    20   ar
    16    20    21   ar
    17    21    22   ar
    18    22    23   ar
    19    23    25    1
    20    25    26    2
    21    25    27   am
    22    27    28    1
    23    28    29    1
    24    29    30    1
    25    30    31   am
    26    31    32    1
    27    31    33    2
    28    30    34    1
    29    34    35    1
    30    23    24   ar
    31     8     9   ar
    32     9    10   ar
    33    14    15   ar
    34    15    16   ar
    35    16    11   ar
    36    10     1   ar
    37     9     4   ar
    38    24    19   ar
    39    35    27    1
@<TRIPOS>MOLECULE
*****
 35 39 0 0 0
SMALL
GASTEIGER

@<TRIPOS>ATOM
      1 C         139.1167  139.7211  164.5040 C.ar    1  UNL1        0.0016
      2 C         138.1155  139.0692  165.4110 C.ar    1  UNL1        0.0016
      3 C         138.3281  139.0829  166.8958 C.ar    1  UNL1        0.0192
      4 C         139.5419  139.7485  167.4735 C.ar    1  UNL1        0.0845
      5 N         139.7545  139.7622  168.9584 N.ar    1  UNL1       -0.2240
      6 C         140.9683  140.4277  169.5361 C.ar    1  UNL1        0.1988
      7 N         141.9695  141.0796  168.6290 N.ar    1  UNL1       -0.2240
      8 C         141.7568  141.0659  167.1443 C.ar    1  UNL1        0.0844
      9 C         140.5431  140.4004  166.5665 C.ar    1  UNL1        0.0354
     10 C         140.3304  140.3867  165.0818 C.ar    1  UNL1        0.0030
     11 C         138.4789  139.6801  160.0496 C.ar    1  UNL1        0.2250
     12 C         138.9264  138.4341  160.7546 C.ar    1  UNL1        0.0577
     13 C         139.1390  138.4477  162.2395 C.ar    1  UNL1        0.0063
     14 C         138.9041  139.7074  163.0192 C.ar    1  UNL1        0.0194
     15 C         138.4566  140.9535  162.3141 C.ar    1  UNL1        0.1020
     16 N         138.2440  140.9399  160.8294 N.ar    1  UNL1       -0.2101
     17 C         137.6312  140.8445  157.8873 C.3     1  UNL1        0.2542
     18 O         138.2663  139.6665  158.5648 O.3     1  UNL1       -0.4561
     19 C         142.7580  141.7178  166.2372 C.ar    1  UNL1        0.0179
     20 C         143.6102  142.8425  166.7459 C.ar    1  UNL1        0.0015
     21 C         144.6114  143.4944  165.8388 C.ar    1  UNL1        0.0002
     22 C         144.7603  143.0215  164.4231 C.ar    1  UNL1        0.0045
     23 C         143.9081  141.8968  163.9145 C.ar    1  UNL1        0.0536
     24 C         142.9070  141.2449  164.8215 C.ar    1  UNL1        0.0060
     25 C         144.0571  141.4239  162.4987 C.2     1  UNL1        0.2491
     26 O         144.8984  140.2199  162.1948 O.2     1  UNL1       -0.2699
     27 N         143.3647  142.1551  161.3870 N.am    1  UNL1       -0.2726
     28 C         142.5234  143.3591  161.6909 C.3     1  UNL1        0.1152
     29 C         141.8310  144.0903  160.5792 C.3     1  UNL1        0.1149
     30 N         141.9800  143.6175  159.1634 N.am    1  UNL1       -0.2760
     31 C         141.2876  144.3486  158.0517 C.2     1  UNL1        0.2262
     32 C         140.4463  145.5527  158.3557 C.3     1  UNL1        0.0948
     33 O         141.4366  143.8758  156.6361 O.2     1  UNL1       -0.2749
     34 C         142.8214  142.4134  158.8595 C.3     1  UNL1        0.1149
     35 C         143.5137  141.6822  159.9713 C.3     1  UNL1        0.1152
@<TRIPOS>BOND
     1    17    18    1
     2    18    11    1
     3    11    12   ar
     4    12    13   ar
     5    13    14   ar
     6    14     1    1
     7     1     2   ar
     8     2     3   ar
     9     3     4   ar
    10     4     5   ar
    11     5     6   ar
    12     6     7   ar
    13     7     8   ar
    14     8    19    1
    15    19    20   ar
    16    20    21   ar
    17    21    22   ar
    18    22    23   ar
    19    23    25    1
    20    25    26    2
    21    25    27   am
    22    27    28    1
    23    28    29    1
    24    29    30    1
    25    30    31   am
    26    31    32    1
    27    31    33    2
    28    30    34    1
    29    34    35    1
    30    23    24   ar
    31     8     9   ar
    32     9    10   ar
    33    14    15   ar
    34    15    16   ar
    35    16    11   ar
    36    10     1   ar
    37     9     4   ar
    38    24    19   ar
    39    35    27    1
@<TRIPOS>MOLECULE
*****
 35 39 0 0 0
SMALL
GASTEIGER

@<TRIPOS>ATOM
      1 C         141.9349  139.7018  158.7416 C.ar    1  UNL1        0.0016
      2 C         140.6651  139.4761  157.9758 C.ar    1  UNL1        0.0016
      3 C         139.4429  138.9697  158.6827 C.ar    1  UNL1        0.0192
      4 C         139.4906  138.6889  160.1554 C.ar    1  UNL1        0.0845
      5 N         138.2683  138.1824  160.8623 N.ar    1  UNL1       -0.2240
      6 C         138.3160  137.9016  162.3351 C.ar    1  UNL1        0.1988
      7 N         139.5860  138.1273  163.1009 N.ar    1  UNL1       -0.2240
      8 C         140.8081  138.6338  162.3940 C.ar    1  UNL1        0.0844
      9 C         140.7604  138.9146  160.9212 C.ar    1  UNL1        0.0354
     10 C         141.9826  139.4210  160.2143 C.ar    1  UNL1        0.0030
     11 C         145.6016  141.2212  156.6209 C.ar    1  UNL1        0.2250
     12 C         145.0388  141.9823  157.7845 C.ar    1  UNL1        0.0577
     13 C         143.8165  141.4758  158.4914 C.ar    1  UNL1        0.0063
     14 C         143.1572  140.2083  158.0347 C.ar    1  UNL1        0.0194
     15 C         143.7200  139.4472  156.8712 C.ar    1  UNL1        0.1020
     16 N         144.9422  139.9536  156.1643 N.ar    1  UNL1       -0.2101
     17 C         146.6925  142.4110  154.5852 C.3     1  UNL1        0.2542
     18 O         146.8238  141.7276  155.9140 O.3     1  UNL1       -0.4561
     19 C         142.0780  138.8595  163.1598 C.ar    1  UNL1        0.0179
     20 C         143.3062  139.3454  162.4489 C.ar    1  UNL1        0.0015
     21 C         144.5761  139.5711  163.2148 C.ar    1  UNL1        0.0002
     22 C         144.6177  139.3108  164.6915 C.ar    1  UNL1        0.0045
     23 C         143.3894  138.8249  165.4023 C.ar    1  UNL1        0.0536
     24 C         142.1196  138.5993  164.6365 C.ar    1  UNL1        0.0060
     25 C         143.4311  138.5647  166.8790 C.2     1  UNL1        0.2491
     26 O         144.1440  137.3554  167.4076 O.2     1  UNL1       -0.2699
     27 N         142.7599  139.5137  167.8270 N.am    1  UNL1       -0.2726
     28 C         142.0470  140.7230  167.2984 C.3     1  UNL1        0.1152
     29 C         141.3757  141.6720  168.2464 C.3     1  UNL1        0.1149
     30 N         141.4174  141.4118  169.7231 N.am    1  UNL1       -0.2760
     31 C         140.7462  142.3608  170.6712 C.2     1  UNL1        0.2262
     32 C         140.0333  143.5701  170.1425 C.3     1  UNL1        0.0948
     33 O         140.7878  142.1005  172.1478 O.2     1  UNL1       -0.2749
     34 C         142.1303  140.2025  170.2518 C.3     1  UNL1        0.1149
     35 C         142.8015  139.2535  169.3037 C.3     1  UNL1        0.1152
@<TRIPOS>BOND
     1    17    18    1
     2    18    11    1
     3    11    12   ar
     4    12    13   ar
     5    13    14   ar
     6    14     1    1
     7     1     2   ar
     8     2     3   ar
     9     3     4   ar
    10     4     5   ar
    11     5     6   ar
    12     6     7   ar
    13     7     8   ar
    14     8    19    1
    15    19    20   ar
    16    20    21   ar
    17    21    22   ar
    18    22    23   ar
    19    23    25    1
    20    25    26    2
    21    25    27   am
    22    27    28    1
    23    28    29    1
    24    29    30    1
    25    30    31   am
    26    31    32    1
    27    31    33    2
    28    30    34    1
    29    34    35    1
    30    23    24   ar
    31     8     9   ar
    32     9    10   ar
    33    14    15   ar
    34    15    16   ar
    35    16    11   ar
    36    10     1   ar
    37     9     4   ar
    38    24    19   ar
    39    35    27    1
