@<TRIPOS>MOLECULE
*****
 36 41 0 0 0
SMALL
GASTEIGER

@<TRIPOS>ATOM
      1 C         138.8544  139.5261  163.8395 C.ar    1  UNL1        0.1188
      2 C         137.7623  140.2337  163.0934 C.ar    1  UNL1        0.0224
      3 C         137.7999  140.3018  161.5954 C.ar    1  UNL1        0.0054
      4 C         138.9295  139.6625  160.8436 C.ar    1  UNL1        0.0464
      5 C         138.9670  139.7307  159.3456 C.ar    1  UNL1        0.1416
      6 F         137.8749  140.4383  158.5995 F       1  UNL1       -0.2041
      7 C         140.0966  139.0914  158.5938 C.ar    1  UNL1        0.0310
      8 C         141.1886  138.3838  159.3399 C.ar    1  UNL1        0.0181
      9 C         141.1512  138.3156  160.8379 C.ar    1  UNL1        0.0627
     10 C         140.0216  138.9549  161.5897 C.ar    1  UNL1        0.0965
     11 N         139.9840  138.8867  163.0877 N.ar    1  UNL1       -0.2409
     12 C         143.5348  142.3029  169.5044 C.3     1  UNL1        0.1124
     13 N         142.2856  141.5095  169.7493 N.pl3   1  UNL1       -0.2987
     14 C         141.8578  141.1984  171.1529 C.3     1  UNL1        0.1387
     15 C         140.6086  140.4049  171.3978 C.3     1  UNL1        0.2269
     16 O         139.7872  139.9225  170.2391 O.3     1  UNL1       -0.4692
     17 C         140.2151  140.2336  168.8355 C.ar    1  UNL1        0.1907
     18 C         141.4643  141.0271  168.5906 C.ar    1  UNL1        0.1067
     19 C         141.8921  141.3381  167.1869 C.ar    1  UNL1        0.1382
     20 N         141.0708  140.8557  166.0282 N.ar    1  UNL1       -0.1592
     21 N         139.8216  140.0623  166.2731 N.ar    1  UNL1       -0.1869
     22 C         138.8169  139.4579  165.3375 C.ar    1  UNL1        0.2041
     23 N         137.7681  138.7732  166.1630 N.ar    1  UNL1       -0.1253
     24 N         138.1247  138.9546  167.6087 N.ar    1  UNL1       -0.1237
     25 C         139.3937  139.7512  167.6767 C.ar    1  UNL1        0.2218
     26 N         142.2432  137.6080  161.5841 N.pl3   1  UNL1       -0.3294
     27 H         142.0255  136.8502  162.1736 H       1  UNL1        0.1469
     28 C         143.6669  138.0552  161.4321 C.3     1  UNL1        0.1201
     29 C         144.0780  139.4205  161.8979 C.3     1  UNL1        0.1543
     30 F         144.1715  139.6126  160.4132 F       1  UNL1       -0.2382
     31 C         143.8417  138.7541  163.2208 C.3     1  UNL1        0.0514
     32 C         144.0491  139.5198  164.4938 C.3     1  UNL1        0.0714
     33 N         144.4926  140.9519  164.4440 N.3     1  UNL1       -0.2973
     34 C         144.7289  141.6182  163.1211 C.3     1  UNL1        0.0714
     35 C         144.5216  140.8525  161.8480 C.3     1  UNL1        0.0514
     36 H         145.3696  141.0067  164.9621 H       1  UNL1        0.1233
@<TRIPOS>BOND
     1    12    13    1
     2    13    14    1
     3    14    15    1
     4    15    16    1
     5    16    17    1
     6    17    18   ar
     7    18    19   ar
     8    19    20   ar
     9    20    21   ar
    10    21    22   ar
    11    22     1    1
    12     1     2   ar
    13     2     3   ar
    14     3     4   ar
    15     4     5   ar
    16     5     6    1
    17     5     7   ar
    18     7     8   ar
    19     8     9   ar
    20     9    26    1
    21    26    28    1
    22    28    29    1
    23    29    30    1
    24    29    31    1
    25    31    32    1
    26    32    33    1
    27    33    34    1
    28    34    35    1
    29     9    10   ar
    30    10    11   ar
    31    22    23   ar
    32    23    24   ar
    33    24    25   ar
    34    18    13    1
    35    25    21   ar
    36    25    17   ar
    37    11     1   ar
    38    10     4   ar
    39    35    29    1
    40    26    27    1
    41    33    36    1
@<TRIPOS>MOLECULE
*****
 36 41 0 0 0
SMALL
GASTEIGER

@<TRIPOS>ATOM
      1 C         142.5298  142.5106  165.2495 C.ar    1  UNL1        0.1188
      2 C         143.4972  142.7257  166.3755 C.ar    1  UNL1        0.0224
      3 C         143.1871  142.1923  167.7427 C.ar    1  UNL1        0.0054
      4 C         141.9098  141.4439  167.9840 C.ar    1  UNL1        0.0464
      5 C         141.5998  140.9106  169.3512 C.ar    1  UNL1        0.1416
      6 F         142.5672  141.1256  170.4772 F       1  UNL1       -0.2041
      7 C         140.3224  140.1622  169.5925 C.ar    1  UNL1        0.0310
      8 C         139.3550  139.9472  168.4665 C.ar    1  UNL1        0.0181
      9 C         139.6650  140.4805  167.0992 C.ar    1  UNL1        0.0627
     10 C         140.9424  141.2289  166.8580 C.ar    1  UNL1        0.0965
     11 N         141.2524  141.7623  165.4906 N.ar    1  UNL1       -0.2409
     12 C         138.5596  142.6723  158.4730 C.3     1  UNL1        0.1124
     13 N         139.9359  143.2377  158.6634 N.pl3   1  UNL1       -0.2987
     14 C         140.6451  143.8886  157.5130 C.3     1  UNL1        0.1387
     15 C         142.0214  144.4540  157.7034 C.3     1  UNL1        0.2269
     16 O         142.6884  144.3686  159.0442 O.3     1  UNL1       -0.4692
     17 C         141.9792  143.7178  160.1946 C.ar    1  UNL1        0.1907
     18 C         140.6029  143.1523  160.0042 C.ar    1  UNL1        0.1067
     19 C         139.8937  142.5015  161.1546 C.ar    1  UNL1        0.1382
     20 N         140.5607  142.4161  162.4954 N.ar    1  UNL1       -0.1592
     21 N         141.9370  142.9815  162.6858 N.ar    1  UNL1       -0.1869
     22 C         142.8398  143.0440  163.8821 C.ar    1  UNL1        0.2041
     23 N         144.1069  143.7334  163.4710 N.ar    1  UNL1       -0.1253
     24 N         143.9873  144.0970  162.0207 N.ar    1  UNL1       -0.1237
     25 C         142.6462  143.6323  161.5355 C.ar    1  UNL1        0.2218
     26 N         138.6976  140.2655  165.9731 N.pl3   1  UNL1       -0.3294
     27 H         138.1460  141.0135  165.6484 H       1  UNL1        0.1469
     28 C         138.5707  138.9107  165.3419 C.3     1  UNL1        0.1201
     29 C         139.1165  138.6705  163.9655 C.3     1  UNL1        0.1543
     30 F         138.0157  139.6375  163.6442 F       1  UNL1       -0.2382
     31 C         140.0276  137.7869  164.7649 C.3     1  UNL1        0.0514
     32 C         141.1023  136.9990  164.0763 C.3     1  UNL1        0.0714
     33 N         141.2658  137.0946  162.5883 N.3     1  UNL1       -0.2973
     34 C         140.3546  137.9782  161.7889 C.3     1  UNL1        0.0714
     35 C         139.2799  138.7661  162.4775 C.3     1  UNL1        0.0514
     36 H         141.1584  136.1499  162.2190 H       1  UNL1        0.1233
@<TRIPOS>BOND
     1    12    13    1
     2    13    14    1
     3    14    15    1
     4    15    16    1
     5    16    17    1
     6    17    18   ar
     7    18    19   ar
     8    19    20   ar
     9    20    21   ar
    10    21    22   ar
    11    22     1    1
    12     1     2   ar
    13     2     3   ar
    14     3     4   ar
    15     4     5   ar
    16     5     6    1
    17     5     7   ar
    18     7     8   ar
    19     8     9   ar
    20     9    26    1
    21    26    28    1
    22    28    29    1
    23    29    30    1
    24    29    31    1
    25    31    32    1
    26    32    33    1
    27    33    34    1
    28    34    35    1
    29     9    10   ar
    30    10    11   ar
    31    22    23   ar
    32    23    24   ar
    33    24    25   ar
    34    18    13    1
    35    25    21   ar
    36    25    17   ar
    37    11     1   ar
    38    10     4   ar
    39    35    29    1
    40    26    27    1
    41    33    36    1
@<TRIPOS>MOLECULE
*****
 36 41 0 0 0
SMALL
GASTEIGER

@<TRIPOS>ATOM
      1 C         142.7767  142.3329  166.0016 C.ar    1  UNL1        0.1188
      2 C         143.5680  142.6651  167.2319 C.ar    1  UNL1        0.0224
      3 C         143.0562  142.2641  168.5836 C.ar    1  UNL1        0.0054
      4 C         141.7532  141.5310  168.7051 C.ar    1  UNL1        0.0464
      5 C         141.2415  141.1300  170.0569 C.ar    1  UNL1        0.1416
      6 F         142.0328  141.4622  171.2872 F       1  UNL1       -0.2041
      7 C         139.9385  140.3970  170.1784 C.ar    1  UNL1        0.0310
      8 C         139.1472  140.0648  168.9481 C.ar    1  UNL1        0.0181
      9 C         139.6590  140.4658  167.5964 C.ar    1  UNL1        0.0627
     10 C         140.9620  141.1989  167.4748 C.ar    1  UNL1        0.0965
     11 N         141.4738  141.5999  166.1230 N.ar    1  UNL1       -0.2409
     12 C         143.0622  138.7220  159.0311 C.3     1  UNL1        0.1124
     13 N         143.5711  140.1092  159.2892 N.pl3   1  UNL1       -0.2987
     14 C         144.1850  140.9025  158.1739 C.3     1  UNL1        0.1387
     15 C         144.6939  142.2897  158.4319 C.3     1  UNL1        0.2269
     16 O         144.5890  142.8837  159.8053 O.3     1  UNL1       -0.4692
     17 C         143.9752  142.0904  160.9206 C.ar    1  UNL1        0.1907
     18 C         143.4662  140.7032  160.6625 C.ar    1  UNL1        0.1067
     19 C         142.8523  139.9100  161.7779 C.ar    1  UNL1        0.1382
     20 N         142.7474  140.5040  163.1512 N.ar    1  UNL1       -0.1592
     21 N         143.2564  141.8912  163.4093 N.ar    1  UNL1       -0.1869
     22 C         143.2885  142.7339  164.6497 C.ar    1  UNL1        0.2041
     23 N         143.9222  144.0480  164.3011 N.ar    1  UNL1       -0.1253
     24 N         144.2818  144.0174  162.8451 N.ar    1  UNL1       -0.1237
     25 C         143.8702  142.6844  162.2940 C.ar    1  UNL1        0.2218
     26 N         138.8677  140.1337  166.3660 N.pl3   1  UNL1       -0.3294
     27 H         138.3359  140.8316  165.9195 H       1  UNL1        0.1469
     28 C         138.8869  138.7383  165.8160 C.3     1  UNL1        0.1201
     29 C         139.1188  138.5125  164.3513 C.3     1  UNL1        0.1543
     30 F         137.9024  139.3881  164.2905 F       1  UNL1       -0.2382
     31 C         140.2547  137.7154  164.9209 C.3     1  UNL1        0.0514
     32 C         141.2000  136.9966  164.0045 C.3     1  UNL1        0.0714
     33 N         141.0095  137.0749  162.5188 N.3     1  UNL1       -0.2973
     34 C         139.8736  137.8720  161.9492 C.3     1  UNL1        0.0714
     35 C         138.9283  138.5909  162.8656 C.3     1  UNL1        0.0514
     36 H         140.8935  136.1178  162.1859 H       1  UNL1        0.1233
@<TRIPOS>BOND
     1    12    13    1
     2    13    14    1
     3    14    15    1
     4    15    16    1
     5    16    17    1
     6    17    18   ar
     7    18    19   ar
     8    19    20   ar
     9    20    21   ar
    10    21    22   ar
    11    22     1    1
    12     1     2   ar
    13     2     3   ar
    14     3     4   ar
    15     4     5   ar
    16     5     6    1
    17     5     7   ar
    18     7     8   ar
    19     8     9   ar
    20     9    26    1
    21    26    28    1
    22    28    29    1
    23    29    30    1
    24    29    31    1
    25    31    32    1
    26    32    33    1
    27    33    34    1
    28    34    35    1
    29     9    10   ar
    30    10    11   ar
    31    22    23   ar
    32    23    24   ar
    33    24    25   ar
    34    18    13    1
    35    25    21   ar
    36    25    17   ar
    37    11     1   ar
    38    10     4   ar
    39    35    29    1
    40    26    27    1
    41    33    36    1
@<TRIPOS>MOLECULE
*****
 36 41 0 0 0
SMALL
GASTEIGER

@<TRIPOS>ATOM
      1 C         139.3086  139.4579  164.8479 C.ar    1  UNL1        0.1188
      2 C         138.2517  139.1187  165.8568 C.ar    1  UNL1        0.0224
      3 C         138.4864  139.3981  167.3117 C.ar    1  UNL1        0.0054
      4 C         139.7780  140.0168  167.7578 C.ar    1  UNL1        0.0464
      5 C         140.0127  140.2962  169.2127 C.ar    1  UNL1        0.1416
      6 F         138.9557  139.9569  170.2215 F       1  UNL1       -0.2041
      7 C         141.3043  140.9149  169.6588 C.ar    1  UNL1        0.0310
      8 C         142.3612  141.2541  168.6499 C.ar    1  UNL1        0.0181
      9 C         142.1266  140.9747  167.1950 C.ar    1  UNL1        0.0627
     10 C         140.8350  140.3561  166.7489 C.ar    1  UNL1        0.0965
     11 N         140.6002  140.0766  165.2939 N.ar    1  UNL1       -0.2409
     12 C         139.7475  143.8526  158.3516 C.3     1  UNL1        0.1124
     13 N         139.3672  142.4017  158.3700 N.pl3   1  UNL1       -0.2987
     14 C         139.0394  141.6959  157.0877 C.3     1  UNL1        0.1387
     15 C         138.6591  140.2450  157.1061 C.3     1  UNL1        0.2269
     16 O         138.6067  139.4999  158.4068 O.3     1  UNL1       -0.4692
     17 C         138.9346  140.2056  159.6892 C.ar    1  UNL1        0.1907
     18 C         139.3149  141.6565  159.6707 C.ar    1  UNL1        0.1067
     19 C         139.6428  142.3623  160.9531 C.ar    1  UNL1        0.1382
     20 N         139.5904  141.6171  162.2539 N.ar    1  UNL1       -0.1592
     21 N         139.2102  140.1662  162.2723 N.ar    1  UNL1       -0.1869
     22 C         139.0740  139.1785  163.3929 C.ar    1  UNL1        0.2041
     23 N         138.6619  137.8623  162.8032 N.ar    1  UNL1       -0.1253
     24 N         138.5434  138.0366  161.3180 N.ar    1  UNL1       -0.1237
     25 C         138.8823  139.4605  160.9900 C.ar    1  UNL1        0.2218
     26 N         143.1835  141.3140  166.1861 N.pl3   1  UNL1       -0.3294
     27 H         143.7522  140.6033  165.8110 H       1  UNL1        0.1469
     28 C         143.3738  142.7361  165.7486 C.3     1  UNL1        0.1201
     29 C         143.7126  143.0423  164.3198 C.3     1  UNL1        0.1543
     30 F         142.5678  143.9895  164.5248 F       1  UNL1       -0.2382
     31 C         144.7398  141.9888  164.6111 C.3     1  UNL1        0.0514
     32 C         145.7083  141.5704  163.5447 C.3     1  UNL1        0.0714
     33 N         145.6495  142.2057  162.1872 N.3     1  UNL1       -0.2973
     34 C         144.6223  143.2592  161.8959 C.3     1  UNL1        0.0714
     35 C         143.6538  143.6776  162.9623 C.3     1  UNL1        0.0514
     36 H         145.4974  141.4527  161.5161 H       1  UNL1        0.1233
@<TRIPOS>BOND
     1    12    13    1
     2    13    14    1
     3    14    15    1
     4    15    16    1
     5    16    17    1
     6    17    18   ar
     7    18    19   ar
     8    19    20   ar
     9    20    21   ar
    10    21    22   ar
    11    22     1    1
    12     1     2   ar
    13     2     3   ar
    14     3     4   ar
    15     4     5   ar
    16     5     6    1
    17     5     7   ar
    18     7     8   ar
    19     8     9   ar
    20     9    26    1
    21    26    28    1
    22    28    29    1
    23    29    30    1
    24    29    31    1
    25    31    32    1
    26    32    33    1
    27    33    34    1
    28    34    35    1
    29     9    10   ar
    30    10    11   ar
    31    22    23   ar
    32    23    24   ar
    33    24    25   ar
    34    18    13    1
    35    25    21   ar
    36    25    17   ar
    37    11     1   ar
    38    10     4   ar
    39    35    29    1
    40    26    27    1
    41    33    36    1
@<TRIPOS>MOLECULE
*****
 36 41 0 0 0
SMALL
GASTEIGER

@<TRIPOS>ATOM
      1 C         138.8013  139.5197  163.8659 C.ar    1  UNL1        0.1188
      2 C         139.0516  138.2797  163.0598 C.ar    1  UNL1        0.0224
      3 C         139.0851  138.3530  161.5620 C.ar    1  UNL1        0.0054
      4 C         138.8683  139.6661  160.8703 C.ar    1  UNL1        0.0464
      5 C         138.9018  139.7393  159.3725 C.ar    1  UNL1        0.1416
      6 F         139.1521  138.4993  158.5664 F       1  UNL1       -0.2041
      7 C         138.6850  141.0525  158.6807 C.ar    1  UNL1        0.0310
      8 C         138.4347  142.2925  159.4868 C.ar    1  UNL1        0.0181
      9 C         138.4012  142.2193  160.9846 C.ar    1  UNL1        0.0627
     10 C         138.6180  140.9061  161.6764 C.ar    1  UNL1        0.0965
     11 N         138.5845  140.8329  163.1743 N.ar    1  UNL1       -0.2409
     12 C         143.5152  142.2484  169.5264 C.3     1  UNL1        0.1124
     13 N         142.2620  141.4617  169.7723 N.pl3   1  UNL1       -0.2987
     14 C         141.8364  141.1484  171.1761 C.3     1  UNL1        0.1387
     15 C         140.5831  140.3617  171.4220 C.3     1  UNL1        0.2269
     16 O         139.7555  139.8883  170.2640 O.3     1  UNL1       -0.4692
     17 C         140.1810  140.2016  168.8603 C.ar    1  UNL1        0.1907
     18 C         141.4343  140.9883  168.6144 C.ar    1  UNL1        0.1067
     19 C         141.8599  141.3017  167.2105 C.ar    1  UNL1        0.1382
     20 N         141.0322  140.8283  166.0526 N.ar    1  UNL1       -0.1592
     21 N         139.7789  140.0416  166.2985 N.ar    1  UNL1       -0.1869
     22 C         138.7678  139.4465  165.3638 C.ar    1  UNL1        0.2041
     23 N         137.7174  138.7654  166.1900 N.ar    1  UNL1       -0.1253
     24 N         138.0793  138.9395  167.6353 N.ar    1  UNL1       -0.1237
     25 C         139.3534  139.7282  167.7022 C.ar    1  UNL1        0.2218
     26 N         138.1508  143.4593  161.7908 N.pl3   1  UNL1       -0.3294
     27 H         137.2644  143.6169  162.1891 H       1  UNL1        0.1469
     28 C         139.2512  144.4591  161.9900 C.3     1  UNL1        0.1201
     29 C         140.3177  144.2065  163.0141 C.3     1  UNL1        0.1543
     30 F         139.1011  144.1706  163.8908 F       1  UNL1       -0.2382
     31 C         141.1639  144.3300  161.7818 C.3     1  UNL1        0.0514
     32 C         142.6541  144.1885  161.8780 C.3     1  UNL1        0.0714
     33 N         143.2981  143.9235  163.2065 N.3     1  UNL1       -0.2973
     34 C         142.4519  143.7999  164.4389 C.3     1  UNL1        0.0714
     35 C         140.9617  143.9414  164.3427 C.3     1  UNL1        0.0514
     36 H         143.9526  144.6876  163.3742 H       1  UNL1        0.1233
@<TRIPOS>BOND
     1    12    13    1
     2    13    14    1
     3    14    15    1
     4    15    16    1
     5    16    17    1
     6    17    18   ar
     7    18    19   ar
     8    19    20   ar
     9    20    21   ar
    10    21    22   ar
    11    22     1    1
    12     1     2   ar
    13     2     3   ar
    14     3     4   ar
    15     4     5   ar
    16     5     6    1
    17     5     7   ar
    18     7     8   ar
    19     8     9   ar
    20     9    26    1
    21    26    28    1
    22    28    29    1
    23    29    30    1
    24    29    31    1
    25    31    32    1
    26    32    33    1
    27    33    34    1
    28    34    35    1
    29     9    10   ar
    30    10    11   ar
    31    22    23   ar
    32    23    24   ar
    33    24    25   ar
    34    18    13    1
    35    25    21   ar
    36    25    17   ar
    37    11     1   ar
    38    10     4   ar
    39    35    29    1
    40    26    27    1
    41    33    36    1
@<TRIPOS>MOLECULE
*****
 36 41 0 0 0
SMALL
GASTEIGER

@<TRIPOS>ATOM
      1 C         141.0318  138.3728  163.1385 C.ar    1  UNL1        0.1188
      2 C         139.7729  137.5739  163.3020 C.ar    1  UNL1        0.0224
      3 C         138.9392  137.7326  164.5388 C.ar    1  UNL1        0.0054
      4 C         139.3644  138.6902  165.6122 C.ar    1  UNL1        0.0464
      5 C         138.5307  138.8489  166.8490 C.ar    1  UNL1        0.1416
      6 F         137.2717  138.0500  167.0124 F       1  UNL1       -0.2041
      7 C         138.9559  139.8066  167.9223 C.ar    1  UNL1        0.0310
      8 C         140.2149  140.6055  167.7589 C.ar    1  UNL1        0.0181
      9 C         141.0486  140.4468  166.5221 C.ar    1  UNL1        0.0627
     10 C         140.6234  139.4892  165.4487 C.ar    1  UNL1        0.0965
     11 N         141.4571  139.3304  164.2118 N.ar    1  UNL1       -0.2409
     12 C         139.3996  138.5026  155.4556 C.3     1  UNL1        0.1124
     13 N         140.7693  138.2885  156.0282 N.pl3   1  UNL1       -0.2987
     14 C         141.9402  138.0804  155.1141 C.3     1  UNL1        0.1387
     15 C         143.3100  137.8663  155.6866 C.3     1  UNL1        0.2269
     16 O         143.5089  137.8603  157.1734 O.3     1  UNL1       -0.4692
     17 C         142.3380  138.0685  158.0875 C.ar    1  UNL1        0.1907
     18 C         140.9683  138.2826  157.5149 C.ar    1  UNL1        0.1067
     19 C         139.7973  138.4907  158.4291 C.ar    1  UNL1        0.1382
     20 N         139.9963  138.4847  159.9158 N.ar    1  UNL1       -0.1592
     21 N         141.3660  138.2707  160.4884 N.ar    1  UNL1       -0.1869
     22 C         141.8656  138.2141  161.9016 C.ar    1  UNL1        0.2041
     23 N         143.3452  137.9711  161.8609 N.ar    1  UNL1       -0.1253
     24 N         143.7601  137.8774  160.4225 N.ar    1  UNL1       -0.1237
     25 C         142.5369  138.0625  159.5743 C.ar    1  UNL1        0.2218
     26 N         142.3076  141.2458  166.3585 N.pl3   1  UNL1       -0.3294
     27 H         143.1760  140.8517  166.6033 H       1  UNL1        0.1469
     28 C         142.2435  142.6451  165.8221 C.3     1  UNL1        0.1201
     29 C         143.1329  143.0541  164.6856 C.3     1  UNL1        0.1543
     30 F         143.9920  142.0029  165.3234 F       1  UNL1       -0.2382
     31 C         141.9648  143.9633  164.4425 C.3     1  UNL1        0.0514
     32 C         141.9846  144.9164  163.2844 C.3     1  UNL1        0.0714
     33 N         143.1724  144.9603  162.3694 N.3     1  UNL1       -0.2973
     34 C         144.3404  144.0512  162.6125 C.3     1  UNL1        0.0714
     35 C         144.3207  143.0980  163.7706 C.3     1  UNL1        0.0514
     36 H         143.5311  145.9147  162.3982 H       1  UNL1        0.1233
@<TRIPOS>BOND
     1    12    13    1
     2    13    14    1
     3    14    15    1
     4    15    16    1
     5    16    17    1
     6    17    18   ar
     7    18    19   ar
     8    19    20   ar
     9    20    21   ar
    10    21    22   ar
    11    22     1    1
    12     1     2   ar
    13     2     3   ar
    14     3     4   ar
    15     4     5   ar
    16     5     6    1
    17     5     7   ar
    18     7     8   ar
    19     8     9   ar
    20     9    26    1
    21    26    28    1
    22    28    29    1
    23    29    30    1
    24    29    31    1
    25    31    32    1
    26    32    33    1
    27    33    34    1
    28    34    35    1
    29     9    10   ar
    30    10    11   ar
    31    22    23   ar
    32    23    24   ar
    33    24    25   ar
    34    18    13    1
    35    25    21   ar
    36    25    17   ar
    37    11     1   ar
    38    10     4   ar
    39    35    29    1
    40    26    27    1
    41    33    36    1
@<TRIPOS>MOLECULE
*****
 36 41 0 0 0
SMALL
GASTEIGER

@<TRIPOS>ATOM
      1 C         139.5957  139.2471  164.6268 C.ar    1  UNL1        0.1188
      2 C         138.4464  138.9218  165.5341 C.ar    1  UNL1        0.0224
      3 C         138.5003  139.3109  166.9817 C.ar    1  UNL1        0.0054
      4 C         139.7035  140.0253  167.5220 C.ar    1  UNL1        0.0464
      5 C         139.7574  140.4144  168.9697 C.ar    1  UNL1        0.1416
      6 F         138.6081  140.0891  169.8770 F       1  UNL1       -0.2041
      7 C         140.9606  141.1288  169.5100 C.ar    1  UNL1        0.0310
      8 C         142.1099  141.4541  168.6027 C.ar    1  UNL1        0.0181
      9 C         142.0561  141.0650  167.1550 C.ar    1  UNL1        0.0627
     10 C         140.8529  140.3506  166.6147 C.ar    1  UNL1        0.0965
     11 N         140.7989  139.9615  165.1670 N.ar    1  UNL1       -0.2409
     12 C         144.1565  140.8145  158.4260 C.3     1  UNL1        0.1124
     13 N         142.9195  139.9676  158.3765 N.pl3   1  UNL1       -0.2987
     14 C         142.4810  139.3555  157.0792 C.3     1  UNL1        0.1387
     15 C         141.2440  138.5086  157.0298 C.3     1  UNL1        0.2269
     16 O         140.4455  138.2737  158.2776 O.3     1  UNL1       -0.4692
     17 C         140.8840  138.8857  159.5749 C.ar    1  UNL1        0.1907
     18 C         142.1210  139.7327  159.6244 C.ar    1  UNL1        0.1067
     19 C         142.5595  140.3447  160.9218 C.ar    1  UNL1        0.1382
     20 N         141.7610  140.1098  162.1696 N.ar    1  UNL1       -0.1592
     21 N         140.5240  139.2629  162.1201 N.ar    1  UNL1       -0.1869
     22 C         139.5418  138.8580  163.1791 C.ar    1  UNL1        0.2041
     23 N         138.4963  137.9957  162.5362 N.ar    1  UNL1       -0.1253
     24 N         138.8323  137.8677  161.0799 N.ar    1  UNL1       -0.1237
     25 C         140.0855  138.6508  160.8228 C.ar    1  UNL1        0.2218
     26 N         143.2054  141.3903  166.2476 N.pl3   1  UNL1       -0.3294
     27 H         143.8198  140.6782  165.9568 H       1  UNL1        0.1469
     28 C         143.4184  142.8006  165.7833 C.3     1  UNL1        0.1201
     29 C         143.7170  143.0779  164.3397 C.3     1  UNL1        0.1543
     30 F         142.5805  144.0320  164.5585 F       1  UNL1       -0.2382
     31 C         144.7499  142.0275  164.6223 C.3     1  UNL1        0.0514
     32 C         145.6867  141.5858  163.5372 C.3     1  UNL1        0.0714
     33 N         145.5906  142.1945  162.1696 N.3     1  UNL1       -0.2973
     34 C         144.5577  143.2449  161.8870 C.3     1  UNL1        0.0714
     35 C         143.6209  143.6866  162.9721 C.3     1  UNL1        0.0514
     36 H         145.4179  141.4290  161.5181 H       1  UNL1        0.1233
@<TRIPOS>BOND
     1    12    13    1
     2    13    14    1
     3    14    15    1
     4    15    16    1
     5    16    17    1
     6    17    18   ar
     7    18    19   ar
     8    19    20   ar
     9    20    21   ar
    10    21    22   ar
    11    22     1    1
    12     1     2   ar
    13     2     3   ar
    14     3     4   ar
    15     4     5   ar
    16     5     6    1
    17     5     7   ar
    18     7     8   ar
    19     8     9   ar
    20     9    26    1
    21    26    28    1
    22    28    29    1
    23    29    30    1
    24    29    31    1
    25    31    32    1
    26    32    33    1
    27    33    34    1
    28    34    35    1
    29     9    10   ar
    30    10    11   ar
    31    22    23   ar
    32    23    24   ar
    33    24    25   ar
    34    18    13    1
    35    25    21   ar
    36    25    17   ar
    37    11     1   ar
    38    10     4   ar
    39    35    29    1
    40    26    27    1
    41    33    36    1
@<TRIPOS>MOLECULE
*****
 36 41 0 0 0
SMALL
GASTEIGER

@<TRIPOS>ATOM
      1 C         139.3002  142.4250  162.3374 C.ar    1  UNL1        0.1188
      2 C         138.1926  142.5247  163.3440 C.ar    1  UNL1        0.0224
      3 C         137.9668  141.4112  164.3234 C.ar    1  UNL1        0.0054
      4 C         138.8486  140.1981  164.2961 C.ar    1  UNL1        0.0464
      5 C         138.6228  139.0846  165.2754 C.ar    1  UNL1        0.1416
      6 F         137.5152  139.1843  166.2821 F       1  UNL1       -0.2041
      7 C         139.5045  137.8715  165.2482 C.ar    1  UNL1        0.0310
      8 C         140.6121  137.7718  164.2415 C.ar    1  UNL1        0.0181
      9 C         140.8379  138.8852  163.2621 C.ar    1  UNL1        0.0627
     10 C         139.9562  140.0984  163.2894 C.ar    1  UNL1        0.0965
     11 N         140.1819  141.2120  162.3100 N.ar    1  UNL1       -0.2409
     12 C         140.9715  142.6306  154.6645 C.3     1  UNL1        0.1124
     13 N         140.7977  143.8451  155.5276 N.pl3   1  UNL1       -0.2987
     14 C         140.9427  145.2146  154.9331 C.3     1  UNL1        0.1387
     15 C         140.7689  146.4291  155.7961 C.3     1  UNL1        0.2269
     16 O         140.4501  146.2741  157.2536 O.3     1  UNL1       -0.4692
     17 C         140.3051  144.9046  157.8481 C.ar    1  UNL1        0.1907
     18 C         140.4789  143.6901  156.9850 C.ar    1  UNL1        0.1067
     19 C         140.3339  142.3206  157.5795 C.ar    1  UNL1        0.1382
     20 N         140.0151  142.1655  159.0370 N.ar    1  UNL1       -0.1592
     21 N         139.8413  143.3800  159.9001 N.ar    1  UNL1       -0.1869
     22 C         139.5260  143.5386  161.3579 C.ar    1  UNL1        0.2041
     23 N         139.4761  145.0060  161.6645 N.ar    1  UNL1       -0.1253
     24 N         139.7606  145.7545  160.3960 N.ar    1  UNL1       -0.1237
     25 C         139.9863  144.7495  159.3056 C.ar    1  UNL1        0.2218
     26 N         141.9455  138.7856  162.2554 N.pl3   1  UNL1       -0.3294
     27 H         141.7595  138.9438  161.3016 H       1  UNL1        0.1469
     28 C         143.3364  138.4451  162.7019 C.3     1  UNL1        0.1201
     29 C         144.2403  139.5211  163.2263 C.3     1  UNL1        0.1543
     30 F         144.1435  138.6471  164.4415 F       1  UNL1       -0.2382
     31 C         144.0232  140.0214  161.8290 C.3     1  UNL1        0.0514
     32 C         144.6765  141.2942  161.3782 C.3     1  UNL1        0.0714
     33 N         145.5468  142.0667  162.3246 N.3     1  UNL1       -0.2973
     34 C         145.7639  141.5664  163.7220 C.3     1  UNL1        0.0714
     35 C         145.1106  140.2936  164.1728 C.3     1  UNL1        0.0514
     36 H         145.1395  142.9983  162.4054 H       1  UNL1        0.1233
@<TRIPOS>BOND
     1    12    13    1
     2    13    14    1
     3    14    15    1
     4    15    16    1
     5    16    17    1
     6    17    18   ar
     7    18    19   ar
     8    19    20   ar
     9    20    21   ar
    10    21    22   ar
    11    22     1    1
    12     1     2   ar
    13     2     3   ar
    14     3     4   ar
    15     4     5   ar
    16     5     6    1
    17     5     7   ar
    18     7     8   ar
    19     8     9   ar
    20     9    26    1
    21    26    28    1
    22    28    29    1
    23    29    30    1
    24    29    31    1
    25    31    32    1
    26    32    33    1
    27    33    34    1
    28    34    35    1
    29     9    10   ar
    30    10    11   ar
    31    22    23   ar
    32    23    24   ar
    33    24    25   ar
    34    18    13    1
    35    25    21   ar
    36    25    17   ar
    37    11     1   ar
    38    10     4   ar
    39    35    29    1
    40    26    27    1
    41    33    36    1
@<TRIPOS>MOLECULE
*****
 36 41 0 0 0
SMALL
GASTEIGER

@<TRIPOS>ATOM
      1 C         140.5139  142.8591  166.2131 C.ar    1  UNL1        0.1188
      2 C         140.0799  143.3753  167.5529 C.ar    1  UNL1        0.0224
      3 C         140.4646  142.6379  168.8012 C.ar    1  UNL1        0.0054
      4 C         141.2833  141.3844  168.7096 C.ar    1  UNL1        0.0464
      5 C         141.6680  140.6470  169.9579 C.ar    1  UNL1        0.1416
      6 F         141.2340  141.1632  171.2978 F       1  UNL1       -0.2041
      7 C         142.4867  139.3935  169.8664 C.ar    1  UNL1        0.0310
      8 C         142.9207  138.8773  168.5265 C.ar    1  UNL1        0.0181
      9 C         142.5360  139.6147  167.2782 C.ar    1  UNL1        0.0627
     10 C         141.7173  140.8682  167.3698 C.ar    1  UNL1        0.0965
     11 N         141.3326  141.6057  166.1215 N.ar    1  UNL1       -0.2409
     12 C         143.4539  143.0798  158.9319 C.3     1  UNL1        0.1124
     13 N         142.2582  143.8623  159.3878 N.pl3   1  UNL1       -0.2987
     14 C         141.5398  144.7623  158.4267 C.3     1  UNL1        0.1387
     15 C         140.3441  145.5448  158.8826 C.3     1  UNL1        0.2269
     16 O         139.8667  145.4272  160.2997 O.3     1  UNL1       -0.4692
     17 C         140.5850  144.5272  161.2609 C.ar    1  UNL1        0.1907
     18 C         141.7808  143.7447  160.8049 C.ar    1  UNL1        0.1067
     19 C         142.4991  142.8446  161.7662 C.ar    1  UNL1        0.1382
     20 N         142.0217  142.7271  163.1833 N.ar    1  UNL1       -0.1592
     21 N         140.8260  143.5096  163.6392 N.ar    1  UNL1       -0.1869
     22 C         140.1292  143.5966  164.9647 C.ar    1  UNL1        0.2041
     23 N         138.9803  144.5504  164.8227 N.ar    1  UNL1       -0.1253
     24 N         138.9669  145.0529  163.4094 N.ar    1  UNL1       -0.1237
     25 C         140.1076  144.4096  162.6780 C.ar    1  UNL1        0.2218
     26 N         142.9700  139.0985  165.9383 N.pl3   1  UNL1       -0.3294
     27 H         143.7612  139.4823  165.4956 H       1  UNL1        0.1469
     28 C         142.1984  137.9977  165.2729 C.3     1  UNL1        0.1201
     29 C         141.9467  138.0454  163.7949 C.3     1  UNL1        0.1543
     30 F         143.4116  138.3673  163.8203 F       1  UNL1       -0.2382
     31 C         140.5693  137.7070  164.2829 C.3     1  UNL1        0.0514
     32 C         139.4489  137.5281  163.3017 C.3     1  UNL1        0.0714
     33 N         139.7060  137.6877  161.8326 N.3     1  UNL1       -0.2973
     34 C         141.0835  138.0261  161.3445 C.3     1  UNL1        0.0714
     35 C         142.2038  138.2050  162.3258 C.3     1  UNL1        0.0514
     36 H         139.0869  138.4288  161.5041 H       1  UNL1        0.1233
@<TRIPOS>BOND
     1    12    13    1
     2    13    14    1
     3    14    15    1
     4    15    16    1
     5    16    17    1
     6    17    18   ar
     7    18    19   ar
     8    19    20   ar
     9    20    21   ar
    10    21    22   ar
    11    22     1    1
    12     1     2   ar
    13     2     3   ar
    14     3     4   ar
    15     4     5   ar
    16     5     6    1
    17     5     7   ar
    18     7     8   ar
    19     8     9   ar
    20     9    26    1
    21    26    28    1
    22    28    29    1
    23    29    30    1
    24    29    31    1
    25    31    32    1
    26    32    33    1
    27    33    34    1
    28    34    35    1
    29     9    10   ar
    30    10    11   ar
    31    22    23   ar
    32    23    24   ar
    33    24    25   ar
    34    18    13    1
    35    25    21   ar
    36    25    17   ar
    37    11     1   ar
    38    10     4   ar
    39    35    29    1
    40    26    27    1
    41    33    36    1
