@<TRIPOS>MOLECULE
*****
 27 30 0 0 0
SMALL
GASTEIGER

@<TRIPOS>ATOM
      1 C         142.7424  135.7626  155.7881 C.ar    1  UNL1        0.0861
      2 C         142.1316  136.4249  156.9874 C.ar    1  UNL1        0.0254
      3 C         142.7599  137.7785  157.1396 C.ar    1  UNL1        0.0731
      4 C         142.5514  138.8749  158.1418 C.ar    1  UNL1        0.1667
      5 N         143.3419  140.1454  158.0389 N.ar    1  UNL1       -0.2048
      6 C         144.3410  140.3196  156.9337 C.ar    1  UNL1        0.2017
      7 N         144.5496  139.2232  155.9315 N.ar    1  UNL1       -0.2048
      8 C         143.7591  137.9526  156.0345 C.ar    1  UNL1        0.1670
      9 N         143.7482  136.7068  155.1992 N.ar    1  UNL1       -0.2263
     10 C         142.5513  133.1984  156.1605 C.ar    1  UNL1        0.1401
     11 C         142.2154  131.8318  155.6413 C.ar    1  UNL1        0.0369
     12 C         141.7345  131.6628  154.2306 C.ar    1  UNL1        0.0031
     13 C         141.5895  132.8603  153.3391 C.ar    1  UNL1        0.0002
     14 C         141.9255  134.2269  153.8582 C.ar    1  UNL1        0.0045
     15 C         142.4064  134.3959  155.2689 C.ar    1  UNL1        0.0517
     16 C         144.4847  133.1802  157.8960 C.3     1  UNL1        0.2525
     17 O         143.0323  133.3675  157.5712 O.3     1  UNL1       -0.4714
     18 N         141.5522  138.7006  159.2470 N.2     1  UNL1       -0.2282
     19 CA        141.9912  138.1646  160.5774 C.2     1  UNL1        0.0937
     20 C         140.9921  137.9904  161.6825 C.ar    1  UNL1        0.0162
     21 C         139.5270  138.1446  161.4003 C.ar    1  UNL1        0.0013
     22 C         138.5279  137.9704  162.5054 C.ar    1  UNL1        0.0000
     23 C         138.9939  137.6419  163.8929 C.ar    1  UNL1        0.0000
     24 C         140.4589  137.4877  164.1751 C.ar    1  UNL1        0.0000
     25 C         141.4581  137.6619  163.0700 C.ar    1  UNL1        0.0013
     26 C         143.4295  137.8029  160.8026 C.3     1  UNL1        0.2275
     27 O         144.4281  138.8712  161.1366 O.3     1  UNL1       -0.2135
@<TRIPOS>BOND
     1    16    17    1
     2    17    10    1
     3    10    11   ar
     4    11    12   ar
     5    12    13   ar
     6    13    14   ar
     7    14    15   ar
     8    15     1    1
     9     1     2   ar
    10     2     3   ar
    11     3     4   ar
    12     4    18    1
    13    18    19    2
    14    19    26    1
    15    26    27    1
    16    19    20    1
    17    20    21   ar
    18    21    22   ar
    19    22    23   ar
    20    23    24   ar
    21    24    25   ar
    22     4     5   ar
    23     5     6   ar
    24     6     7   ar
    25     7     8   ar
    26     8     9   ar
    27    15    10   ar
    28     9     1   ar
    29     8     3    1
    30    25    20   ar
@<TRIPOS>MOLECULE
*****
 27 30 0 0 0
SMALL
GASTEIGER

@<TRIPOS>ATOM
      1 C         140.9395  141.1354  164.4757 C.ar    1  UNL1        0.0861
      2 C         140.9713  141.7299  163.0989 C.ar    1  UNL1        0.0254
      3 C         141.9673  142.8516  163.1013 C.ar    1  UNL1        0.0731
      4 C         142.4181  143.7958  162.0265 C.ar    1  UNL1        0.1667
      5 N         143.4525  144.8388  162.3299 N.ar    1  UNL1       -0.2048
      6 C         144.0360  144.9377  163.7082 C.ar    1  UNL1        0.2017
      7 N         143.5852  143.9935  164.7830 N.ar    1  UNL1       -0.2048
      8 C         142.5508  142.9504  164.4796 C.ar    1  UNL1        0.1670
      9 N         141.9156  141.8898  165.3290 N.ar    1  UNL1       -0.2263
     10 C         140.4063  138.5926  164.4767 C.ar    1  UNL1        0.1401
     11 C         139.5489  137.4453  164.9221 C.ar    1  UNL1        0.0369
     12 C         138.3671  137.6934  165.8118 C.ar    1  UNL1        0.0031
     13 C         138.0427  139.0888  166.2562 C.ar    1  UNL1        0.0002
     14 C         138.9001  140.2362  165.8108 C.ar    1  UNL1        0.0045
     15 C         140.0819  139.9881  164.9211 C.ar    1  UNL1        0.0517
     16 C         141.3834  137.8185  162.1972 C.3     1  UNL1        0.2525
     17 O         141.5882  138.3445  163.5869 O.3     1  UNL1       -0.4714
     18 N         141.8345  143.6969  160.6482 N.2     1  UNL1       -0.2282
     19 CA        140.7259  144.6192  160.2352 C.2     1  UNL1        0.0937
     20 C         140.1423  144.5204  158.8570 C.ar    1  UNL1        0.0162
     21 C         140.3573  145.6295  157.8701 C.ar    1  UNL1        0.0013
     22 C         139.7737  145.5307  156.4919 C.ar    1  UNL1        0.0000
     23 C         138.9751  144.3228  156.1004 C.ar    1  UNL1        0.0000
     24 C         138.7601  143.2137  157.0872 C.ar    1  UNL1        0.0000
     25 C         139.3437  143.3125  158.4655 C.ar    1  UNL1        0.0013
     26 C         140.2010  145.6403  161.2006 C.3     1  UNL1        0.2275
     27 O         138.8559  145.4495  161.8364 O.3     1  UNL1       -0.2135
@<TRIPOS>BOND
     1    16    17    1
     2    17    10    1
     3    10    11   ar
     4    11    12   ar
     5    12    13   ar
     6    13    14   ar
     7    14    15   ar
     8    15     1    1
     9     1     2   ar
    10     2     3   ar
    11     3     4   ar
    12     4    18    1
    13    18    19    2
    14    19    26    1
    15    26    27    1
    16    19    20    1
    17    20    21   ar
    18    21    22   ar
    19    22    23   ar
    20    23    24   ar
    21    24    25   ar
    22     4     5   ar
    23     5     6   ar
    24     6     7   ar
    25     7     8   ar
    26     8     9   ar
    27    15    10   ar
    28     9     1   ar
    29     8     3    1
    30    25    20   ar
@<TRIPOS>MOLECULE
*****
 27 30 0 0 0
SMALL
GASTEIGER

@<TRIPOS>ATOM
      1 C         140.3912  141.7380  161.5151 C.ar    1  UNL1        0.0861
      2 C         140.3900  141.7570  163.0150 C.ar    1  UNL1        0.0254
      3 C         139.9338  140.4111  163.4952 C.ar    1  UNL1        0.0731
      4 C         139.7378  139.8504  164.8726 C.ar    1  UNL1        0.1667
      5 N         139.2610  138.4390  165.0469 N.ar    1  UNL1       -0.2048
      6 C         138.9804  137.5882  163.8439 C.ar    1  UNL1        0.2017
      7 N         139.1764  138.1489  162.4665 N.ar    1  UNL1       -0.2048
      8 C         139.6531  139.5604  162.2921 C.ar    1  UNL1        0.1670
      9 N         139.9358  140.3804  161.0684 N.ar    1  UNL1       -0.2263
     10 C         139.9632  144.1350  160.6088 C.ar    1  UNL1        0.1401
     11 C         140.3516  145.2736  159.7129 C.ar    1  UNL1        0.0369
     12 C         141.5564  145.1539  158.8274 C.ar    1  UNL1        0.0031
     13 C         142.3728  143.8956  158.8378 C.ar    1  UNL1        0.0002
     14 C         141.9844  142.7570  159.7337 C.ar    1  UNL1        0.0045
     15 C         140.7796  142.8767  160.6192 C.ar    1  UNL1        0.0517
     16 C         138.8304  145.0679  162.7527 C.3     1  UNL1        0.2525
     17 O         138.7584  144.2547  161.4944 O.3     1  UNL1       -0.4714
     18 N         140.0184  140.7013  166.0757 N.2     1  UNL1       -0.2282
     19 CA        141.4007  140.7462  166.6565 C.2     1  UNL1        0.0937
     20 C         141.6814  141.5969  167.8595 C.ar    1  UNL1        0.0162
     21 C         140.6089  142.4856  168.4165 C.ar    1  UNL1        0.0013
     22 C         140.8896  143.3364  169.6196 C.ar    1  UNL1        0.0000
     23 C         142.2428  143.2986  170.2656 C.ar    1  UNL1        0.0000
     24 C         143.3153  142.4101  169.7087 C.ar    1  UNL1        0.0000
     25 C         143.0346  141.5592  168.5056 C.ar    1  UNL1        0.0013
     26 C         142.5022  139.9402  166.0343 C.3     1  UNL1        0.2275
     27 O         143.3017  140.5118  164.9011 O.3     1  UNL1       -0.2135
@<TRIPOS>BOND
     1    16    17    1
     2    17    10    1
     3    10    11   ar
     4    11    12   ar
     5    12    13   ar
     6    13    14   ar
     7    14    15   ar
     8    15     1    1
     9     1     2   ar
    10     2     3   ar
    11     3     4   ar
    12     4    18    1
    13    18    19    2
    14    19    26    1
    15    26    27    1
    16    19    20    1
    17    20    21   ar
    18    21    22   ar
    19    22    23   ar
    20    23    24   ar
    21    24    25   ar
    22     4     5   ar
    23     5     6   ar
    24     6     7   ar
    25     7     8   ar
    26     8     9   ar
    27    15    10   ar
    28     9     1   ar
    29     8     3    1
    30    25    20   ar
@<TRIPOS>MOLECULE
*****
 27 30 0 0 0
SMALL
GASTEIGER

@<TRIPOS>ATOM
      1 C         140.5816  140.7924  167.1129 C.ar    1  UNL1        0.0861
      2 C         140.5894  141.2110  165.6725 C.ar    1  UNL1        0.0254
      3 C         139.9906  140.0989  164.8633 C.ar    1  UNL1        0.0731
      4 C         139.7406  139.9504  163.3918 C.ar    1  UNL1        0.1667
      5 N         139.1127  138.6960  162.8605 N.ar    1  UNL1       -0.2048
      6 C         138.7349  137.5901  163.8008 C.ar    1  UNL1        0.2017
      7 N         138.9849  137.7386  165.2723 N.ar    1  UNL1       -0.2048
      8 C         139.6127  138.9930  165.8036 C.ar    1  UNL1        0.1670
      9 N         139.9780  139.4216  167.1939 N.ar    1  UNL1       -0.2263
     10 C         142.2334  141.0955  169.0953 C.ar    1  UNL1        0.1401
     11 C         142.7402  141.9054  170.2516 C.ar    1  UNL1        0.0369
     12 C         142.1022  143.2221  170.5819 C.ar    1  UNL1        0.0031
     13 C         140.9573  143.7289  169.7559 C.ar    1  UNL1        0.0002
     14 C         140.4504  142.9190  168.5996 C.ar    1  UNL1        0.0045
     15 C         141.0885  141.6023  168.2692 C.ar    1  UNL1        0.0517
     16 C         142.7589  138.6296  169.7224 C.3     1  UNL1        0.2525
     17 O         142.8715  139.7788  168.7649 O.3     1  UNL1       -0.4714
     18 N         140.1185  141.0564  162.4515 N.2     1  UNL1       -0.2282
     19 CA        139.2334  142.2597  162.3147 C.2     1  UNL1        0.0937
     20 C         139.6112  143.3656  161.3745 C.ar    1  UNL1        0.0162
     21 C         139.7236  144.7737  161.8793 C.ar    1  UNL1        0.0013
     22 C         140.1014  145.8797  160.9391 C.ar    1  UNL1        0.0000
     23 C         140.3669  145.5776  159.4940 C.ar    1  UNL1        0.0000
     24 C         140.2546  144.1697  158.9891 C.ar    1  UNL1        0.0000
     25 C         139.8767  143.0636  159.9294 C.ar    1  UNL1        0.0013
     26 C         137.9704  142.3570  163.1182 C.3     1  UNL1        0.2275
     27 O         136.8087  141.4627  162.8006 O.3     1  UNL1       -0.2135
@<TRIPOS>BOND
     1    16    17    1
     2    17    10    1
     3    10    11   ar
     4    11    12   ar
     5    12    13   ar
     6    13    14   ar
     7    14    15   ar
     8    15     1    1
     9     1     2   ar
    10     2     3   ar
    11     3     4   ar
    12     4    18    1
    13    18    19    2
    14    19    26    1
    15    26    27    1
    16    19    20    1
    17    20    21   ar
    18    21    22   ar
    19    22    23   ar
    20    23    24   ar
    21    24    25   ar
    22     4     5   ar
    23     5     6   ar
    24     6     7   ar
    25     7     8   ar
    26     8     9   ar
    27    15    10   ar
    28     9     1   ar
    29     8     3    1
    30    25    20   ar
@<TRIPOS>MOLECULE
*****
 27 30 0 0 0
SMALL
GASTEIGER

@<TRIPOS>ATOM
      1 C         141.4374  141.0811  164.2310 C.ar    1  UNL1        0.0861
      2 C         141.4652  141.8282  162.9306 C.ar    1  UNL1        0.0254
      3 C         142.3371  143.0358  163.1085 C.ar    1  UNL1        0.0731
      4 C         142.7318  144.1361  162.1684 C.ar    1  UNL1        0.1667
      5 N         143.6373  145.2355  162.6386 N.ar    1  UNL1       -0.2048
      6 C         144.1483  145.2347  164.0488 C.ar    1  UNL1        0.2017
      7 N         143.7537  144.1344  164.9889 N.ar    1  UNL1       -0.2048
      8 C         142.8481  143.0350  164.5187 C.ar    1  UNL1        0.1670
      9 N         142.2920  141.8269  165.2125 N.ar    1  UNL1       -0.2263
     10 C         139.2680  139.8672  164.9864 C.ar    1  UNL1        0.1401
     11 C         138.5173  138.5973  165.2577 C.ar    1  UNL1        0.0369
     12 C         139.1853  137.2712  165.0450 C.ar    1  UNL1        0.0031
     13 C         140.6039  137.2150  164.5609 C.ar    1  UNL1        0.0002
     14 C         141.3546  138.4850  164.2896 C.ar    1  UNL1        0.0045
     15 C         140.6867  139.8111  164.5023 C.ar    1  UNL1        0.0517
     16 C         137.8326  141.8345  164.0811 C.3     1  UNL1        0.2525
     17 O         138.6001  141.1934  165.1991 O.3     1  UNL1       -0.4714
     18 N         142.2207  144.1368  160.7581 N.2     1  UNL1       -0.2282
     19 CA        140.8549  144.6782  160.4555 C.2     1  UNL1        0.0937
     20 C         140.3439  144.6790  159.0453 C.ar    1  UNL1        0.0162
     21 C         139.6435  143.4695  158.5007 C.ar    1  UNL1        0.0013
     22 C         139.1325  143.4703  157.0905 C.ar    1  UNL1        0.0000
     23 C         139.3218  144.6805  156.2248 C.ar    1  UNL1        0.0000
     24 C         140.0221  145.8900  156.7693 C.ar    1  UNL1        0.0000
     25 C         140.5332  145.8893  158.1796 C.ar    1  UNL1        0.0013
     26 C         140.0002  145.2189  161.5634 C.3     1  UNL1        0.2275
     27 O         139.8869  146.7005  161.7683 O.3     1  UNL1       -0.2135
@<TRIPOS>BOND
     1    16    17    1
     2    17    10    1
     3    10    11   ar
     4    11    12   ar
     5    12    13   ar
     6    13    14   ar
     7    14    15   ar
     8    15     1    1
     9     1     2   ar
    10     2     3   ar
    11     3     4   ar
    12     4    18    1
    13    18    19    2
    14    19    26    1
    15    26    27    1
    16    19    20    1
    17    20    21   ar
    18    21    22   ar
    19    22    23   ar
    20    23    24   ar
    21    24    25   ar
    22     4     5   ar
    23     5     6   ar
    24     6     7   ar
    25     7     8   ar
    26     8     9   ar
    27    15    10   ar
    28     9     1   ar
    29     8     3    1
    30    25    20   ar
@<TRIPOS>MOLECULE
*****
 27 30 0 0 0
SMALL
GASTEIGER

@<TRIPOS>ATOM
      1 C         141.1354  141.5807  161.3443 C.ar    1  UNL1        0.0861
      2 C         141.1596  141.4159  162.8350 C.ar    1  UNL1        0.0254
      3 C         141.1255  139.9475  163.1396 C.ar    1  UNL1        0.0731
      4 C         141.1298  139.1908  164.4348 C.ar    1  UNL1        0.1667
      5 N         141.0889  137.6914  164.4275 N.ar    1  UNL1       -0.2048
      6 C         141.0437  136.9487  163.1251 C.ar    1  UNL1        0.2017
      7 N         141.0394  137.7054  161.8299 N.ar    1  UNL1       -0.2048
      8 C         141.0803  139.2048  161.8372 C.ar    1  UNL1        0.1670
      9 N         141.0864  140.2141  160.7276 N.ar    1  UNL1       -0.2263
     10 C         142.1053  143.0776  159.4552 C.ar    1  UNL1        0.1401
     11 C         142.1264  144.3801  158.7116 C.ar    1  UNL1        0.0369
     12 C         141.1989  145.4883  159.1135 C.ar    1  UNL1        0.0031
     13 C         140.2502  145.2940  160.2590 C.ar    1  UNL1        0.0002
     14 C         140.2290  143.9914  161.0026 C.ar    1  UNL1        0.0045
     15 C         141.1565  142.8833  160.6007 C.ar    1  UNL1        0.0517
     16 C         144.5164  142.1490  159.1829 C.3     1  UNL1        0.2525
     17 O         143.0328  141.9694  159.0533 O.3     1  UNL1       -0.4714
     18 N         141.1750  139.9336  165.7372 N.2     1  UNL1       -0.2282
     19 CA        139.9004  140.3724  166.3950 C.2     1  UNL1        0.0937
     20 C         139.9455  141.1152  167.6974 C.ar    1  UNL1        0.0162
     21 C         140.4228  142.5368  167.7339 C.ar    1  UNL1        0.0013
     22 C         140.4680  143.2795  169.0363 C.ar    1  UNL1        0.0000
     23 C         140.0359  142.6007  170.3022 C.ar    1  UNL1        0.0000
     24 C         139.5586  141.1792  170.2657 C.ar    1  UNL1        0.0000
     25 C         139.5134  140.4364  168.9633 C.ar    1  UNL1        0.0013
     26 C         138.5805  140.0685  165.7503 C.3     1  UNL1        0.2275
     27 O         138.0787  140.9274  164.6275 O.3     1  UNL1       -0.2135
@<TRIPOS>BOND
     1    16    17    1
     2    17    10    1
     3    10    11   ar
     4    11    12   ar
     5    12    13   ar
     6    13    14   ar
     7    14    15   ar
     8    15     1    1
     9     1     2   ar
    10     2     3   ar
    11     3     4   ar
    12     4    18    1
    13    18    19    2
    14    19    26    1
    15    26    27    1
    16    19    20    1
    17    20    21   ar
    18    21    22   ar
    19    22    23   ar
    20    23    24   ar
    21    24    25   ar
    22     4     5   ar
    23     5     6   ar
    24     6     7   ar
    25     7     8   ar
    26     8     9   ar
    27    15    10   ar
    28     9     1   ar
    29     8     3    1
    30    25    20   ar
@<TRIPOS>MOLECULE
*****
 27 30 0 0 0
SMALL
GASTEIGER

@<TRIPOS>ATOM
      1 C         140.6845  141.1799  161.5238 C.ar    1  UNL1        0.0861
      2 C         140.3700  141.1000  162.9883 C.ar    1  UNL1        0.0254
      3 C         140.5389  139.6738  163.4214 C.ar    1  UNL1        0.0731
      4 C         140.3654  139.0013  164.7510 C.ar    1  UNL1        0.1667
      5 N         140.6107  137.5275  164.8838 N.ar    1  UNL1       -0.2048
      6 C         141.0295  136.7262  163.6870 C.ar    1  UNL1        0.2017
      7 N         141.2031  137.3986  162.3575 N.ar    1  UNL1       -0.2048
      8 C         140.9577  138.8724  162.2246 C.ar    1  UNL1        0.1670
      9 N         141.0477  139.8032  161.0519 N.ar    1  UNL1       -0.2263
     10 C         139.5463  142.6045  159.6731 C.ar    1  UNL1        0.1401
     11 C         139.5048  143.8436  158.8288 C.ar    1  UNL1        0.0369
     12 C         140.5600  144.8973  158.9909 C.ar    1  UNL1        0.0031
     13 C         141.6567  144.7118  159.9973 C.ar    1  UNL1        0.0002
     14 C         141.6982  143.4728  160.8416 C.ar    1  UNL1        0.0045
     15 C         140.6430  142.4191  160.6795 C.ar    1  UNL1        0.0517
     16 C         138.6103  140.5322  158.4164 C.3     1  UNL1        0.2525
     17 O         138.4911  141.5508  159.5110 O.3     1  UNL1       -0.4714
     18 N         139.9465  139.8028  165.9478 N.2     1  UNL1       -0.2282
     19 CA        140.9844  140.3941  166.8551 C.2     1  UNL1        0.0937
     20 C         140.5656  141.1955  168.0519 C.ar    1  UNL1        0.0162
     21 C         139.6908  140.5756  169.1010 C.ar    1  UNL1        0.0013
     22 C         139.2720  141.3770  170.2977 C.ar    1  UNL1        0.0000
     23 C         139.7279  142.7984  170.4454 C.ar    1  UNL1        0.0000
     24 C         140.6026  143.4183  169.3964 C.ar    1  UNL1        0.0000
     25 C         141.0215  142.6169  168.1996 C.ar    1  UNL1        0.0013
     26 C         142.4411  140.1838  166.5656 C.3     1  UNL1        0.2275
     27 O         143.1433  138.9688  167.0953 O.3     1  UNL1       -0.2135
@<TRIPOS>BOND
     1    16    17    1
     2    17    10    1
     3    10    11   ar
     4    11    12   ar
     5    12    13   ar
     6    13    14   ar
     7    14    15   ar
     8    15     1    1
     9     1     2   ar
    10     2     3   ar
    11     3     4   ar
    12     4    18    1
    13    18    19    2
    14    19    26    1
    15    26    27    1
    16    19    20    1
    17    20    21   ar
    18    21    22   ar
    19    22    23   ar
    20    23    24   ar
    21    24    25   ar
    22     4     5   ar
    23     5     6   ar
    24     6     7   ar
    25     7     8   ar
    26     8     9   ar
    27    15    10   ar
    28     9     1   ar
    29     8     3    1
    30    25    20   ar
@<TRIPOS>MOLECULE
*****
 27 30 0 0 0
SMALL
GASTEIGER

@<TRIPOS>ATOM
      1 C         141.5393  138.8151  160.8107 C.ar    1  UNL1        0.0861
      2 C         142.0762  137.9270  159.7277 C.ar    1  UNL1        0.0254
      3 C         142.4449  138.7921  158.5590 C.ar    1  UNL1        0.0731
      4 C         143.0221  138.4681  157.2129 C.ar    1  UNL1        0.1667
      5 N         143.2902  139.5668  156.2277 N.ar    1  UNL1       -0.2048
      6 C         142.9812  140.9896  156.5884 C.ar    1  UNL1        0.2017
      7 N         142.4040  141.3136  157.9345 N.ar    1  UNL1       -0.2048
      8 C         142.1359  140.2149  158.9198 C.ar    1  UNL1        0.1670
      9 N         141.5762  140.2291  160.3114 N.ar    1  UNL1       -0.2263
     10 C         139.5940  138.0828  162.3694 C.ar    1  UNL1        0.1401
     11 C         139.1059  137.6355  163.7154 C.ar    1  UNL1        0.0369
     12 C         140.0750  137.4734  164.8487 C.ar    1  UNL1        0.0031
     13 C         141.5323  137.7585  164.6360 C.ar    1  UNL1        0.0002
     14 C         142.0204  138.2057  163.2901 C.ar    1  UNL1        0.0045
     15 C         141.0513  138.3679  162.1567 C.ar    1  UNL1        0.0517
     16 C         137.6598  139.3933  161.2329 C.3     1  UNL1        0.2525
     17 O         138.6249  138.2450  161.2360 O.3     1  UNL1       -0.4714
     18 N         143.3311  137.0452  156.8522 N.2     1  UNL1       -0.2282
     19 CA        142.2427  136.1473  156.3431 C.2     1  UNL1        0.0937
     20 C         142.5516  134.7245  155.9824 C.ar    1  UNL1        0.0162
     21 C         143.8695  134.1217  156.3698 C.ar    1  UNL1        0.0013
     22 C         144.1784  132.6989  156.0090 C.ar    1  UNL1        0.0000
     23 C         143.1696  131.8789  155.2609 C.ar    1  UNL1        0.0000
     24 C         141.8518  132.4816  154.8735 C.ar    1  UNL1        0.0000
     25 C         141.5428  133.9044  155.2343 C.ar    1  UNL1        0.0013
     26 C         140.8453  136.6722  156.1948 C.3     1  UNL1        0.2275
     27 O         140.4080  137.2844  154.8971 O.3     1  UNL1       -0.2135
@<TRIPOS>BOND
     1    16    17    1
     2    17    10    1
     3    10    11   ar
     4    11    12   ar
     5    12    13   ar
     6    13    14   ar
     7    14    15   ar
     8    15     1    1
     9     1     2   ar
    10     2     3   ar
    11     3     4   ar
    12     4    18    1
    13    18    19    2
    14    19    26    1
    15    26    27    1
    16    19    20    1
    17    20    21   ar
    18    21    22   ar
    19    22    23   ar
    20    23    24   ar
    21    24    25   ar
    22     4     5   ar
    23     5     6   ar
    24     6     7   ar
    25     7     8   ar
    26     8     9   ar
    27    15    10   ar
    28     9     1   ar
    29     8     3    1
    30    25    20   ar
@<TRIPOS>MOLECULE
*****
 27 30 0 0 0
SMALL
GASTEIGER

@<TRIPOS>ATOM
      1 C         140.8770  142.2246  166.7652 C.ar    1  UNL1        0.0861
      2 C         141.1790  141.8409  165.3470 C.ar    1  UNL1        0.0254
      3 C         140.4390  142.7831  164.4443 C.ar    1  UNL1        0.0731
      4 C         140.3586  142.8862  162.9500 C.ar    1  UNL1        0.1667
      5 N         139.5189  143.9553  162.3161 N.ar    1  UNL1       -0.2048
      6 C         138.7597  144.9213  163.1764 C.ar    1  UNL1        0.2017
      7 N         138.8401  144.8182  164.6707 N.ar    1  UNL1       -0.2048
      8 C         139.6798  143.7491  165.3046 C.ar    1  UNL1        0.1670
      9 N         139.9505  143.4040  166.7391 N.ar    1  UNL1       -0.2263
     10 C         140.5798  140.5149  168.6988 C.ar    1  UNL1        0.1401
     11 C         141.1110  139.8381  169.9275 C.ar    1  UNL1        0.0369
     12 C         142.4706  140.1943  170.4514 C.ar    1  UNL1        0.0031
     13 C         143.2990  141.2273  169.7467 C.ar    1  UNL1        0.0002
     14 C         142.7678  141.9040  168.5179 C.ar    1  UNL1        0.0045
     15 C         141.4082  141.5478  167.9940 C.ar    1  UNL1        0.0517
     16 C         139.0882  139.2567  166.9835 C.3     1  UNL1        0.2525
     17 O         139.2202  140.1586  168.1747 O.3     1  UNL1       -0.4714
     18 N         141.1179  141.9201  162.0896 N.2     1  UNL1       -0.2282
     19 CA        140.4864  140.6218  161.6825 C.2     1  UNL1        0.0937
     20 C         141.2456  139.6557  160.8222 C.ar    1  UNL1        0.0162
     21 C         141.0595  139.6704  159.3338 C.ar    1  UNL1        0.0013
     22 C         141.8187  138.7043  158.4735 C.ar    1  UNL1        0.0000
     23 C         142.7641  137.7235  159.1014 C.ar    1  UNL1        0.0000
     24 C         142.9501  137.7087  160.5897 C.ar    1  UNL1        0.0000
     25 C         142.1909  138.6749  161.4502 C.ar    1  UNL1        0.0013
     26 C         139.0956  140.2896  162.1359 C.3     1  UNL1        0.2275
     27 O         137.9136  140.8211  161.3806 O.3     1  UNL1       -0.2135
@<TRIPOS>BOND
     1    16    17    1
     2    17    10    1
     3    10    11   ar
     4    11    12   ar
     5    12    13   ar
     6    13    14   ar
     7    14    15   ar
     8    15     1    1
     9     1     2   ar
    10     2     3   ar
    11     3     4   ar
    12     4    18    1
    13    18    19    2
    14    19    26    1
    15    26    27    1
    16    19    20    1
    17    20    21   ar
    18    21    22   ar
    19    22    23   ar
    20    23    24   ar
    21    24    25   ar
    22     4     5   ar
    23     5     6   ar
    24     6     7   ar
    25     7     8   ar
    26     8     9   ar
    27    15    10   ar
    28     9     1   ar
    29     8     3    1
    30    25    20   ar
