@<TRIPOS>MOLECULE
*****
 34 38 0 0 0
SMALL
GASTEIGER

@<TRIPOS>ATOM
      1 C         142.8585  140.2361  165.0797 C.3     1  UNL1        0.1531
      2 C         141.9673  139.4700  164.1477 C.3     1  UNL1        0.1067
      3 N         142.3040  139.3852  162.6885 N.3     1  UNL1       -0.2665
      4 C         141.4128  138.6191  161.7564 C.3     1  UNL1        0.0940
      5 C         141.7495  138.5343  160.2971 C.3     1  UNL1        0.1107
      6 N         142.9774  139.2157  159.7699 N.am    1  UNL1       -0.2763
      7 C         143.3141  139.1309  158.3106 C.2     1  UNL1        0.2318
      8 O         144.5420  139.8122  157.7834 O.2     1  UNL1       -0.2744
      9 C         143.8686  139.9818  160.7020 C.3     1  UNL1        0.1119
     10 C         143.5319  140.0666  162.1613 C.3     1  UNL1        0.1075
     11 C         144.4232  140.8327  163.0933 C.3     1  UNL1        0.1601
     12 O         144.0865  140.9175  164.5525 O.3     1  UNL1       -0.3489
     13 C         141.5121  142.6859  166.1687 C.3     1  UNL1        0.0316
     14 C         141.8487  141.5458  167.0835 C.ar    1  UNL1       -0.0117
     15 C         142.5218  140.3209  166.5391 C.ar    1  UNL1        0.0027
     16 C         142.8584  139.1808  167.4539 C.ar    1  UNL1        0.0001
     17 C         142.5217  139.2656  168.9131 C.ar    1  UNL1        0.0301
     18 C         141.8485  140.4905  169.4576 C.ar    1  UNL1        0.1493
     19 F         141.5119  140.5752  170.9169 F       1  UNL1       -0.2035
     20 C         141.5120  141.6306  168.5428 C.ar    1  UNL1        0.0916
     21 C         140.8388  142.8555  169.0873 C.1     1  UNL1        0.1024
     22 N         140.1656  144.0804  169.6317 N.1     1  UNL1       -0.1908
     23 C         142.4229  138.3647  157.3786 C.3     1  UNL1        0.1309
     24 C         142.8076  136.9830  156.9396 C.ar    1  UNL1        0.0683
     25 C         142.9861  136.6820  155.4809 C.ar    1  UNL1        0.0168
     26 C         143.3708  135.3003  155.0419 C.ar    1  UNL1        0.0221
     27 C         143.5771  134.2195  156.0614 C.ar    1  UNL1        0.1053
     28 C         143.3986  134.5205  157.5200 C.ar    1  UNL1        0.1176
     29 N         143.0138  135.9023  157.9591 N.ar    1  UNL1       -0.2461
     30 N         143.9618  132.8378  155.6224 N.ar    1  UNL1       -0.1871
     31 C         143.2968  132.0392  154.5407 C.ar    1  UNL1        0.2259
     32 N         144.0031  130.7198  154.4377 N.ar    1  UNL1       -0.1045
     33 N         145.1047  130.7031  155.4557 N.ar    1  UNL1       -0.0222
     34 N         145.0792  132.0121  156.1879 N.ar    1  UNL1       -0.0384
@<TRIPOS>BOND
     1    13    14    1
     2    14    15   ar
     3     1    15    1
     4     1     2    1
     5     2     3    1
     6     3     4    1
     7     4     5    1
     8     5     6    1
     9     6     7   am
    10     7     8    2
    11     7    23    1
    12    23    24    1
    13    24    25   ar
    14    25    26   ar
    15    26    27   ar
    16    27    30    1
    17    30    31   ar
    18    31    32   ar
    19    32    33   ar
    20    33    34   ar
    21    27    28   ar
    22    28    29   ar
    23     6     9    1
    24    10     9    1
    25    10    11    1
    26    11    12    1
    27    15    16   ar
    28    16    17   ar
    29    17    18   ar
    30    18    19    1
    31    18    20   ar
    32    20    21    1
    33    21    22    3
    34    20    14   ar
    35    12     1    1
    36    10     3    1
    37    29    24   ar
    38    34    30   ar
@<TRIPOS>MOLECULE
*****
 34 38 0 0 0
SMALL
GASTEIGER

@<TRIPOS>ATOM
      1 C         138.4736  141.1871  157.6735 C.3     1  UNL1        0.1531
      2 C         137.6993  141.0474  158.9506 C.3     1  UNL1        0.1067
      3 N         138.2365  140.1981  160.0642 N.3     1  UNL1       -0.2665
      4 C         137.4622  140.0583  161.3413 C.3     1  UNL1        0.0940
      5 C         137.9994  139.2090  162.4549 C.3     1  UNL1        0.1107
      6 N         139.3108  138.4994  162.2914 N.am    1  UNL1       -0.2763
      7 C         139.8479  137.6501  163.4051 C.2     1  UNL1        0.2318
      8 O         141.1593  136.9405  163.2416 O.2     1  UNL1       -0.2744
      9 C         140.0850  138.6391  161.0143 C.3     1  UNL1        0.1119
     10 C         139.5479  139.4885  159.9007 C.3     1  UNL1        0.1075
     11 C         140.3221  139.6282  158.6236 C.3     1  UNL1        0.1601
     12 O         139.7850  140.4775  157.5100 O.3     1  UNL1       -0.3489
     13 C         139.3855  144.0302  157.3814 C.3     1  UNL1        0.0316
     14 C         138.3924  143.4579  156.4138 C.ar    1  UNL1       -0.0117
     15 C         137.9364  142.0364  156.5598 C.ar    1  UNL1        0.0027
     16 C         136.9433  141.4642  155.5922 C.ar    1  UNL1        0.0001
     17 C         136.4062  142.3134  154.4786 C.ar    1  UNL1        0.0301
     18 C         136.8621  143.7350  154.3326 C.ar    1  UNL1        0.1493
     19 F         136.3250  144.5843  153.2189 F       1  UNL1       -0.2035
     20 C         137.8552  144.3073  155.3002 C.ar    1  UNL1        0.0916
     21 C         138.3112  145.7288  155.1541 C.1     1  UNL1        0.1024
     22 N         138.7672  147.1503  155.0081 N.1     1  UNL1       -0.1908
     23 C         139.0737  137.5104  164.6822 C.3     1  UNL1        0.1309
     24 C         139.3438  138.4393  165.8284 C.ar    1  UNL1        0.0683
     25 C         138.2792  138.6949  166.8538 C.ar    1  UNL1        0.0168
     26 C         138.5493  139.6238  168.0000 C.ar    1  UNL1        0.0221
     27 C         139.8842  140.2973  168.1210 C.ar    1  UNL1        0.1053
     28 C         140.9488  140.0419  167.0958 C.ar    1  UNL1        0.1176
     29 N         140.6787  139.1129  165.9494 N.ar    1  UNL1       -0.2461
     30 N         140.1543  141.2263  169.2673 N.ar    1  UNL1       -0.1871
     31 C         140.6054  142.6528  169.1587 C.ar    1  UNL1        0.2259
     32 N         140.7507  143.2000  170.5478 N.ar    1  UNL1       -0.1045
     33 N         140.3894  142.1117  171.5149 N.ar    1  UNL1       -0.0222
     34 N         140.0209  140.8920  170.7235 N.ar    1  UNL1       -0.0384
@<TRIPOS>BOND
     1    13    14    1
     2    14    15   ar
     3     1    15    1
     4     1     2    1
     5     2     3    1
     6     3     4    1
     7     4     5    1
     8     5     6    1
     9     6     7   am
    10     7     8    2
    11     7    23    1
    12    23    24    1
    13    24    25   ar
    14    25    26   ar
    15    26    27   ar
    16    27    30    1
    17    30    31   ar
    18    31    32   ar
    19    32    33   ar
    20    33    34   ar
    21    27    28   ar
    22    28    29   ar
    23     6     9    1
    24    10     9    1
    25    10    11    1
    26    11    12    1
    27    15    16   ar
    28    16    17   ar
    29    17    18   ar
    30    18    19    1
    31    18    20   ar
    32    20    21    1
    33    21    22    3
    34    20    14   ar
    35    12     1    1
    36    10     3    1
    37    29    24   ar
    38    34    30   ar
@<TRIPOS>MOLECULE
*****
 34 38 0 0 0
SMALL
GASTEIGER

@<TRIPOS>ATOM
      1 C         142.3372  142.1970  165.7178 C.3     1  UNL1        0.1531
      2 C         142.9471  141.1449  164.8398 C.3     1  UNL1        0.1067
      3 N         143.0771  141.3822  163.3645 N.3     1  UNL1       -0.2665
      4 C         143.6870  140.3301  162.4863 C.3     1  UNL1        0.0940
      5 C         143.8170  140.5674  161.0110 C.3     1  UNL1        0.1107
      6 N         143.3370  141.8569  160.4137 N.am    1  UNL1       -0.2763
      7 C         143.4670  142.0943  158.9382 C.2     1  UNL1        0.2318
      8 O         142.9871  143.3838  158.3409 O.2     1  UNL1       -0.2744
      9 C         142.7271  142.9091  161.2917 C.3     1  UNL1        0.1119
     10 C         142.5971  142.6718  162.7671 C.3     1  UNL1        0.1075
     11 C         141.9873  143.7239  163.6451 C.3     1  UNL1        0.1601
     12 O         141.8573  143.4866  165.1205 O.3     1  UNL1       -0.3489
     13 C         139.8140  141.0159  166.8306 C.3     1  UNL1        0.0316
     14 C         140.9457  141.3692  167.7496 C.ar    1  UNL1       -0.0117
     15 C         142.2073  141.9597  167.1933 C.ar    1  UNL1        0.0027
     16 C         143.3389  142.3130  168.1123 C.ar    1  UNL1        0.0001
     17 C         143.2090  142.0757  169.5876 C.ar    1  UNL1        0.0301
     18 C         141.9473  141.4851  170.1441 C.ar    1  UNL1        0.1493
     19 F         141.8174  141.2478  171.6195 F       1  UNL1       -0.2035
     20 C         140.8157  141.1318  169.2251 C.ar    1  UNL1        0.0916
     21 C         139.5541  140.5413  169.7815 C.1     1  UNL1        0.1024
     22 N         138.2925  139.9507  170.3378 N.1     1  UNL1       -0.1908
     23 C         144.0769  141.0421  158.0602 C.3     1  UNL1        0.1309
     24 C         145.2442  141.3825  157.1819 C.ar    1  UNL1        0.0683
     25 C         145.4608  140.6354  155.8993 C.ar    1  UNL1        0.0168
     26 C         146.6281  140.9758  155.0210 C.ar    1  UNL1        0.0221
     27 C         147.5788  142.0634  155.4251 C.ar    1  UNL1        0.1053
     28 C         147.3622  142.8105  156.7076 C.ar    1  UNL1        0.1176
     29 N         146.1949  142.4701  157.5860 N.ar    1  UNL1       -0.2461
     30 N         148.7461  142.4038  154.5468 N.ar    1  UNL1       -0.1871
     31 C         150.0988  141.7570  154.5881 C.ar    1  UNL1        0.2259
     32 N         150.9544  142.4043  153.5397 N.ar    1  UNL1       -0.1045
     33 N         150.1304  143.4513  152.8504 N.ar    1  UNL1       -0.0222
     34 N         148.7656  143.4510  153.4728 N.ar    1  UNL1       -0.0384
@<TRIPOS>BOND
     1    13    14    1
     2    14    15   ar
     3     1    15    1
     4     1     2    1
     5     2     3    1
     6     3     4    1
     7     4     5    1
     8     5     6    1
     9     6     7   am
    10     7     8    2
    11     7    23    1
    12    23    24    1
    13    24    25   ar
    14    25    26   ar
    15    26    27   ar
    16    27    30    1
    17    30    31   ar
    18    31    32   ar
    19    32    33   ar
    20    33    34   ar
    21    27    28   ar
    22    28    29   ar
    23     6     9    1
    24    10     9    1
    25    10    11    1
    26    11    12    1
    27    15    16   ar
    28    16    17   ar
    29    17    18   ar
    30    18    19    1
    31    18    20   ar
    32    20    21    1
    33    21    22    3
    34    20    14   ar
    35    12     1    1
    36    10     3    1
    37    29    24   ar
    38    34    30   ar
@<TRIPOS>MOLECULE
*****
 34 38 0 0 0
SMALL
GASTEIGER

@<TRIPOS>ATOM
      1 C         139.7816  140.7592  162.8784 C.3     1  UNL1        0.1531
      2 C         140.9962  140.2473  162.1625 C.3     1  UNL1        0.1067
      3 N         140.8522  139.5673  160.8333 N.3     1  UNL1       -0.2665
      4 C         142.0669  139.0553  160.1173 C.3     1  UNL1        0.0940
      5 C         141.9230  138.3753  158.7882 C.3     1  UNL1        0.1107
      6 N         140.5644  138.2072  158.1749 N.am    1  UNL1       -0.2763
      7 C         140.4206  137.5271  156.8456 C.2     1  UNL1        0.2318
      8 O         139.0620  137.3591  156.2323 O.2     1  UNL1       -0.2744
      9 C         139.3498  138.7191  158.8908 C.3     1  UNL1        0.1119
     10 C         139.4937  139.3992  160.2200 C.3     1  UNL1        0.1075
     11 C         138.2791  139.9111  160.9359 C.3     1  UNL1        0.1601
     12 O         138.4230  140.5912  162.2651 O.3     1  UNL1       -0.3489
     13 C         139.5334  139.1703  165.4110 C.3     1  UNL1        0.0316
     14 C         139.8013  140.6448  165.4739 C.ar    1  UNL1       -0.0117
     15 C         139.9254  141.4393  164.2077 C.ar    1  UNL1        0.0027
     16 C         140.1934  142.9138  164.2707 C.ar    1  UNL1        0.0001
     17 C         140.3373  143.5939  165.5998 C.ar    1  UNL1        0.0301
     18 C         140.2132  142.7994  166.8662 C.ar    1  UNL1        0.1493
     19 F         140.3571  143.4795  168.1953 F       1  UNL1       -0.2035
     20 C         139.9452  141.3249  166.8032 C.ar    1  UNL1        0.0916
     21 C         139.8211  140.5304  168.0694 C.1     1  UNL1        0.1024
     22 N         139.6970  139.7360  169.3357 N.1     1  UNL1       -0.1908
     23 C         141.6352  137.0152  156.1297 C.3     1  UNL1        0.1309
     24 C         142.0730  135.5930  156.3182 C.ar    1  UNL1        0.0683
     25 C         141.4749  134.5060  155.4749 C.ar    1  UNL1        0.0168
     26 C         141.9127  133.0838  155.6634 C.ar    1  UNL1        0.0221
     27 C         142.9486  132.7484  156.6952 C.ar    1  UNL1        0.1053
     28 C         143.5466  133.8352  157.5384 C.ar    1  UNL1        0.1176
     29 N         143.1089  135.2576  157.3499 N.ar    1  UNL1       -0.2461
     30 N         143.3864  131.3262  156.8837 N.ar    1  UNL1       -0.1871
     31 C         144.5736  130.8669  157.6771 C.ar    1  UNL1        0.2259
     32 N         144.6348  129.3703  157.5956 N.ar    1  UNL1       -0.1045
     33 N         143.4853  128.9047  156.7518 N.ar    1  UNL1       -0.0222
     34 N         142.7137  130.1134  156.3118 N.ar    1  UNL1       -0.0384
@<TRIPOS>BOND
     1    13    14    1
     2    14    15   ar
     3     1    15    1
     4     1     2    1
     5     2     3    1
     6     3     4    1
     7     4     5    1
     8     5     6    1
     9     6     7   am
    10     7     8    2
    11     7    23    1
    12    23    24    1
    13    24    25   ar
    14    25    26   ar
    15    26    27   ar
    16    27    30    1
    17    30    31   ar
    18    31    32   ar
    19    32    33   ar
    20    33    34   ar
    21    27    28   ar
    22    28    29   ar
    23     6     9    1
    24    10     9    1
    25    10    11    1
    26    11    12    1
    27    15    16   ar
    28    16    17   ar
    29    17    18   ar
    30    18    19    1
    31    18    20   ar
    32    20    21    1
    33    21    22    3
    34    20    14   ar
    35    12     1    1
    36    10     3    1
    37    29    24   ar
    38    34    30   ar
@<TRIPOS>MOLECULE
*****
 34 38 0 0 0
SMALL
GASTEIGER

@<TRIPOS>ATOM
      1 C         142.4752  140.5871  163.9774 C.3     1  UNL1        0.1531
      2 C         141.5157  139.8295  163.1083 C.3     1  UNL1        0.1067
      3 N         141.8704  139.5322  161.6815 N.3     1  UNL1       -0.2665
      4 C         140.9109  138.7746  160.8123 C.3     1  UNL1        0.0940
      5 C         141.2656  138.4774  159.3855 C.3     1  UNL1        0.1107
      6 N         142.5797  138.9377  158.8278 N.am    1  UNL1       -0.2763
      7 C         142.9344  138.6404  157.4010 C.2     1  UNL1        0.2318
      8 O         144.2486  139.1007  156.8433 O.2     1  UNL1       -0.2744
      9 C         143.5392  139.6953  159.6969 C.3     1  UNL1        0.1119
     10 C         143.1846  139.9926  161.1238 C.3     1  UNL1        0.1075
     11 C         144.1441  140.7501  161.9929 C.3     1  UNL1        0.1601
     12 O         143.7894  141.0474  163.4197 O.3     1  UNL1       -0.3489
     13 C         143.2908  138.6888  166.1526 C.3     1  UNL1        0.0316
     14 C         142.5283  139.9353  166.4919 C.ar    1  UNL1       -0.0117
     15 C         142.1205  140.8844  165.4043 C.ar    1  UNL1        0.0027
     16 C         141.3580  142.1308  165.7435 C.ar    1  UNL1        0.0001
     17 C         141.0033  142.4281  167.1703 C.ar    1  UNL1        0.0301
     18 C         141.4111  141.4790  168.2579 C.ar    1  UNL1        0.1493
     19 F         141.0565  141.7763  169.6847 F       1  UNL1       -0.2035
     20 C         142.1736  140.2326  167.9187 C.ar    1  UNL1        0.0916
     21 C         142.5815  139.2835  169.0063 C.1     1  UNL1        0.1024
     22 N         142.9893  138.3344  170.0939 N.1     1  UNL1       -0.1908
     23 C         141.9749  137.8828  156.5318 C.3     1  UNL1        0.1309
     24 C         142.1160  136.3976  156.3764 C.ar    1  UNL1        0.0683
     25 C         141.3165  135.6732  155.3342 C.ar    1  UNL1        0.0168
     26 C         141.4576  134.1880  155.1788 C.ar    1  UNL1        0.0221
     27 C         142.3980  133.4271  156.0656 C.ar    1  UNL1        0.1053
     28 C         143.1975  134.1514  157.1078 C.ar    1  UNL1        0.1176
     29 N         143.0565  135.6367  157.2633 N.ar    1  UNL1       -0.2461
     30 N         142.5391  131.9419  155.9102 N.ar    1  UNL1       -0.1871
     31 C         141.5148  131.0154  155.3250 C.ar    1  UNL1        0.2259
     32 N         142.0719  129.6232  155.3658 N.ar    1  UNL1       -0.1045
     33 N         143.4405  129.6893  155.9763 N.ar    1  UNL1       -0.0222
     34 N         143.7292  131.1223  156.3127 N.ar    1  UNL1       -0.0384
@<TRIPOS>BOND
     1    13    14    1
     2    14    15   ar
     3     1    15    1
     4     1     2    1
     5     2     3    1
     6     3     4    1
     7     4     5    1
     8     5     6    1
     9     6     7   am
    10     7     8    2
    11     7    23    1
    12    23    24    1
    13    24    25   ar
    14    25    26   ar
    15    26    27   ar
    16    27    30    1
    17    30    31   ar
    18    31    32   ar
    19    32    33   ar
    20    33    34   ar
    21    27    28   ar
    22    28    29   ar
    23     6     9    1
    24    10     9    1
    25    10    11    1
    26    11    12    1
    27    15    16   ar
    28    16    17   ar
    29    17    18   ar
    30    18    19    1
    31    18    20   ar
    32    20    21    1
    33    21    22    3
    34    20    14   ar
    35    12     1    1
    36    10     3    1
    37    29    24   ar
    38    34    30   ar
@<TRIPOS>MOLECULE
*****
 34 38 0 0 0
SMALL
GASTEIGER

@<TRIPOS>ATOM
      1 C         141.2880  139.9099  165.3719 C.3     1  UNL1        0.1531
      2 C         142.4346  139.7379  164.4203 C.3     1  UNL1        0.1067
      3 N         142.1727  139.3820  162.9869 N.3     1  UNL1       -0.2665
      4 C         143.3193  139.2100  162.0352 C.3     1  UNL1        0.0940
      5 C         143.0574  138.8541  160.6017 C.3     1  UNL1        0.1107
      6 N         141.6488  138.6703  160.1199 N.am    1  UNL1       -0.2763
      7 C         141.3869  138.3144  158.6865 C.2     1  UNL1        0.2318
      8 O         139.9783  138.1306  158.2047 O.2     1  UNL1       -0.2744
      9 C         140.5022  138.8423  161.0716 C.3     1  UNL1        0.1119
     10 C         140.7641  139.1982  162.5051 C.3     1  UNL1        0.1075
     11 C         139.6175  139.3702  163.4567 C.3     1  UNL1        0.1601
     12 O         139.8794  139.7261  164.8901 O.3     1  UNL1       -0.3489
     13 C         140.1832  142.4556  166.5115 C.3     1  UNL1        0.0316
     14 C         140.9975  141.5386  167.3751 C.ar    1  UNL1       -0.0117
     15 C         141.5499  140.2658  166.8054 C.ar    1  UNL1        0.0027
     16 C         142.3642  139.3487  167.6690 C.ar    1  UNL1        0.0001
     17 C         142.6261  139.7045  169.1025 C.ar    1  UNL1        0.0301
     18 C         142.0737  140.9774  169.6723 C.ar    1  UNL1        0.1493
     19 F         142.3357  141.3332  171.1057 F       1  UNL1       -0.2035
     20 C         141.2594  141.8945  168.8086 C.ar    1  UNL1        0.0916
     21 C         140.7070  143.1673  169.3784 C.1     1  UNL1        0.1024
     22 N         140.1546  144.4401  169.9482 N.1     1  UNL1       -0.1908
     23 C         142.5335  138.1424  157.7348 C.3     1  UNL1        0.1309
     24 C         142.8362  136.7896  157.1620 C.ar    1  UNL1        0.0683
     25 C         142.7834  136.5744  155.6784 C.ar    1  UNL1        0.0168
     26 C         143.0861  135.2216  155.1055 C.ar    1  UNL1        0.0221
     27 C         143.4415  134.0839  156.0162 C.ar    1  UNL1        0.1053
     28 C         143.4943  134.2990  157.4997 C.ar    1  UNL1        0.1176
     29 N         143.1916  135.6519  158.0726 N.ar    1  UNL1       -0.2461
     30 N         143.7442  132.7311  155.4433 N.ar    1  UNL1       -0.1871
     31 C         144.6428  131.6963  156.0531 C.ar    1  UNL1        0.2259
     32 N         144.6554  130.5011  155.1466 N.ar    1  UNL1       -0.1045
     33 N         143.7645  130.7973  153.9767 N.ar    1  UNL1       -0.0222
     34 N         143.2014  132.1754  154.1600 N.ar    1  UNL1       -0.0384
@<TRIPOS>BOND
     1    13    14    1
     2    14    15   ar
     3     1    15    1
     4     1     2    1
     5     2     3    1
     6     3     4    1
     7     4     5    1
     8     5     6    1
     9     6     7   am
    10     7     8    2
    11     7    23    1
    12    23    24    1
    13    24    25   ar
    14    25    26   ar
    15    26    27   ar
    16    27    30    1
    17    30    31   ar
    18    31    32   ar
    19    32    33   ar
    20    33    34   ar
    21    27    28   ar
    22    28    29   ar
    23     6     9    1
    24    10     9    1
    25    10    11    1
    26    11    12    1
    27    15    16   ar
    28    16    17   ar
    29    17    18   ar
    30    18    19    1
    31    18    20   ar
    32    20    21    1
    33    21    22    3
    34    20    14   ar
    35    12     1    1
    36    10     3    1
    37    29    24   ar
    38    34    30   ar
@<TRIPOS>MOLECULE
*****
 34 38 0 0 0
SMALL
GASTEIGER

@<TRIPOS>ATOM
      1 C         141.0029  142.0612  161.7353 C.3     1  UNL1        0.1531
      2 C         140.2337  140.9484  161.0872 C.3     1  UNL1        0.1067
      3 N         140.8590  140.1481  159.9834 N.3     1  UNL1       -0.2665
      4 C         140.0899  139.0352  159.3353 C.3     1  UNL1        0.0940
      5 C         140.7152  138.2350  158.2315 C.3     1  UNL1        0.1107
      6 N         142.1097  138.5475  157.7757 N.am    1  UNL1       -0.2763
      7 C         142.7350  137.7471  156.6718 C.2     1  UNL1        0.2318
      8 O         144.1295  138.0596  156.2161 O.2     1  UNL1       -0.2744
      9 C         142.8789  139.6603  158.4238 C.3     1  UNL1        0.1119
     10 C         142.2535  140.4606  159.5277 C.3     1  UNL1        0.1075
     11 C         143.0227  141.5734  160.1757 C.3     1  UNL1        0.1601
     12 O         142.3974  142.3737  161.2795 O.3     1  UNL1       -0.3489
     13 C         141.5787  141.3739  164.5982 C.3     1  UNL1        0.0316
     14 C         140.6654  142.5179  164.2706 C.ar    1  UNL1       -0.0117
     15 C         140.3775  142.8615  162.8392 C.ar    1  UNL1        0.0027
     16 C         139.4643  144.0055  162.5116 C.ar    1  UNL1        0.0001
     17 C         138.8390  144.8059  163.6154 C.ar    1  UNL1        0.0301
     18 C         139.1269  144.4622  165.0469 C.ar    1  UNL1        0.1493
     19 F         138.5016  145.2626  166.1506 F       1  UNL1       -0.2035
     20 C         140.0401  143.3182  165.3745 C.ar    1  UNL1        0.0916
     21 C         140.3280  142.9746  166.8059 C.1     1  UNL1        0.1024
     22 N         140.6159  142.6309  168.2373 N.1     1  UNL1       -0.1908
     23 C         141.9659  136.6343  156.0238 C.3     1  UNL1        0.1309
     24 C         142.3406  135.2072  156.2937 C.ar    1  UNL1        0.0683
     25 C         141.6913  134.1012  155.5157 C.ar    1  UNL1        0.0168
     26 C         142.0661  132.6741  155.7856 C.ar    1  UNL1        0.0221
     27 C         143.0902  132.3529  156.8335 C.ar    1  UNL1        0.1053
     28 C         143.7395  133.4588  157.6115 C.ar    1  UNL1        0.1176
     29 N         143.3647  134.8860  157.3416 N.ar    1  UNL1       -0.2461
     30 N         143.4649  130.9258  157.1034 N.ar    1  UNL1       -0.1871
     31 C         142.8613  129.7173  156.4514 C.ar    1  UNL1        0.2259
     32 N         143.5325  128.5011  157.0178 N.ar    1  UNL1       -0.1045
     33 N         144.5509  128.9582  158.0198 N.ar    1  UNL1       -0.0222
     34 N         144.5092  130.4566  158.0727 N.ar    1  UNL1       -0.0384
@<TRIPOS>BOND
     1    13    14    1
     2    14    15   ar
     3     1    15    1
     4     1     2    1
     5     2     3    1
     6     3     4    1
     7     4     5    1
     8     5     6    1
     9     6     7   am
    10     7     8    2
    11     7    23    1
    12    23    24    1
    13    24    25   ar
    14    25    26   ar
    15    26    27   ar
    16    27    30    1
    17    30    31   ar
    18    31    32   ar
    19    32    33   ar
    20    33    34   ar
    21    27    28   ar
    22    28    29   ar
    23     6     9    1
    24    10     9    1
    25    10    11    1
    26    11    12    1
    27    15    16   ar
    28    16    17   ar
    29    17    18   ar
    30    18    19    1
    31    18    20   ar
    32    20    21    1
    33    21    22    3
    34    20    14   ar
    35    12     1    1
    36    10     3    1
    37    29    24   ar
    38    34    30   ar
@<TRIPOS>MOLECULE
*****
 34 38 0 0 0
SMALL
GASTEIGER

@<TRIPOS>ATOM
      1 C         140.5288  140.1836  164.1980 C.3     1  UNL1        0.1531
      2 C         141.6767  139.8283  163.3003 C.3     1  UNL1        0.1067
      3 N         141.4159  139.3547  161.9012 N.3     1  UNL1       -0.2665
      4 C         142.5639  138.9994  161.0034 C.3     1  UNL1        0.0940
      5 C         142.3031  138.5258  159.6042 C.3     1  UNL1        0.1107
      6 N         140.8944  138.4077  159.1028 N.am    1  UNL1       -0.2763
      7 C         140.6336  137.9341  157.7035 C.2     1  UNL1        0.2318
      8 O         139.2248  137.8159  157.2020 O.2     1  UNL1       -0.2744
      9 C         139.7464  138.7630  160.0005 C.3     1  UNL1        0.1119
     10 C         140.0072  139.2366  161.3997 C.3     1  UNL1        0.1075
     11 C         138.8592  139.5919  162.2974 C.3     1  UNL1        0.1601
     12 O         139.1201  140.0655  163.6966 O.3     1  UNL1       -0.3489
     13 C         138.7035  139.3504  166.4283 C.3     1  UNL1        0.0316
     14 C         139.8769  140.2406  166.7124 C.ar    1  UNL1       -0.0117
     15 C         140.7896  140.6572  165.5973 C.ar    1  UNL1        0.0027
     16 C         141.9630  141.5473  165.8813 C.ar    1  UNL1        0.0001
     17 C         142.2238  142.0209  167.2805 C.ar    1  UNL1        0.0301
     18 C         141.3111  141.6043  168.3957 C.ar    1  UNL1        0.1493
     19 F         141.5719  142.0779  169.7948 F       1  UNL1       -0.2035
     20 C         140.1377  140.7141  168.1116 C.ar    1  UNL1        0.0916
     21 C         139.2251  140.2975  169.2267 C.1     1  UNL1        0.1024
     22 N         138.3125  139.8809  170.3418 N.1     1  UNL1       -0.1908
     23 C         141.7815  137.5788  156.8058 C.3     1  UNL1        0.1309
     24 C         142.1963  136.1457  156.6504 C.ar    1  UNL1        0.0683
     25 C         141.5010  135.2677  155.6524 C.ar    1  UNL1        0.0168
     26 C         141.9158  133.8346  155.4970 C.ar    1  UNL1        0.0221
     27 C         143.0258  133.2794  156.3395 C.ar    1  UNL1        0.1053
     28 C         143.7210  134.1573  157.3374 C.ar    1  UNL1        0.1176
     29 N         143.3063  135.5905  157.4929 N.ar    1  UNL1       -0.2461
     30 N         143.4405  131.8463  156.1840 N.ar    1  UNL1       -0.1871
     31 C         144.8500  131.3414  156.0916 C.ar    1  UNL1        0.2259
     32 N         144.7992  129.8495  155.9442 N.ar    1  UNL1       -0.1045
     33 N         143.3583  129.4324  155.9455 N.ar    1  UNL1       -0.0222
     34 N         142.5186  130.6664  156.0937 N.ar    1  UNL1       -0.0384
@<TRIPOS>BOND
     1    13    14    1
     2    14    15   ar
     3     1    15    1
     4     1     2    1
     5     2     3    1
     6     3     4    1
     7     4     5    1
     8     5     6    1
     9     6     7   am
    10     7     8    2
    11     7    23    1
    12    23    24    1
    13    24    25   ar
    14    25    26   ar
    15    26    27   ar
    16    27    30    1
    17    30    31   ar
    18    31    32   ar
    19    32    33   ar
    20    33    34   ar
    21    27    28   ar
    22    28    29   ar
    23     6     9    1
    24    10     9    1
    25    10    11    1
    26    11    12    1
    27    15    16   ar
    28    16    17   ar
    29    17    18   ar
    30    18    19    1
    31    18    20   ar
    32    20    21    1
    33    21    22    3
    34    20    14   ar
    35    12     1    1
    36    10     3    1
    37    29    24   ar
    38    34    30   ar
@<TRIPOS>MOLECULE
*****
 34 38 0 0 0
SMALL
GASTEIGER

@<TRIPOS>ATOM
      1 C         142.1693  137.6486  157.2395 C.3     1  UNL1        0.1531
      2 C         140.9633  137.7529  158.1253 C.3     1  UNL1        0.1067
      3 N         140.9630  138.7073  159.2824 N.3     1  UNL1       -0.2665
      4 C         139.7569  138.8116  160.1683 C.3     1  UNL1        0.0940
      5 C         139.7566  139.7660  161.3255 C.3     1  UNL1        0.1107
      6 N         140.9623  140.6162  161.5968 N.am    1  UNL1       -0.2763
      7 C         140.9619  141.5706  162.7540 C.2     1  UNL1        0.2318
      8 O         142.1675  142.4208  163.0254 O.2     1  UNL1       -0.2744
      9 C         142.1682  140.5119  160.7110 C.3     1  UNL1        0.1119
     10 C         142.1686  139.5574  159.5538 C.3     1  UNL1        0.1075
     11 C         143.3746  139.4532  158.6680 C.3     1  UNL1        0.1601
     12 O         143.3749  138.4988  157.5108 O.3     1  UNL1       -0.3489
     13 C         143.3779  134.9200  157.5459 C.3     1  UNL1        0.0316
     14 C         142.7739  135.3299  156.2355 C.ar    1  UNL1       -0.0117
     15 C         142.1696  136.6942  156.0822 C.ar    1  UNL1        0.0027
     16 C         141.5657  137.1041  154.7718 C.ar    1  UNL1        0.0001
     17 C         141.5660  136.1497  153.6146 C.ar    1  UNL1        0.0301
     18 C         142.1703  134.7853  153.7678 C.ar    1  UNL1        0.1493
     19 F         142.1707  133.8310  152.6106 F       1  UNL1       -0.2035
     20 C         142.7743  134.3754  155.0782 C.ar    1  UNL1        0.0916
     21 C         143.3786  133.0112  155.2315 C.1     1  UNL1        0.1024
     22 N         143.9829  131.6469  155.3847 N.1     1  UNL1       -0.1908
     23 C         139.7559  141.6749  163.6398 C.3     1  UNL1        0.1309
     24 C         139.9163  141.6503  165.1310 C.ar    1  UNL1        0.0683
     25 C         140.1710  142.9253  165.8791 C.ar    1  UNL1        0.0168
     26 C         140.3313  142.9007  167.3703 C.ar    1  UNL1        0.0221
     27 C         140.2371  141.6011  168.1134 C.ar    1  UNL1        0.1053
     28 C         139.9824  140.3262  167.3654 C.ar    1  UNL1        0.1176
     29 N         139.8220  140.3507  165.8741 N.ar    1  UNL1       -0.2461
     30 N         140.3975  141.5765  169.6046 N.ar    1  UNL1       -0.1871
     31 C         140.3711  140.3546  170.4742 C.ar    1  UNL1        0.2259
     32 N         140.5697  140.7924  171.8951 N.ar    1  UNL1       -0.1045
     33 N         140.7189  142.2850  171.9036 N.ar    1  UNL1       -0.0222
     34 N         140.6124  142.7696  170.4881 N.ar    1  UNL1       -0.0384
@<TRIPOS>BOND
     1    13    14    1
     2    14    15   ar
     3     1    15    1
     4     1     2    1
     5     2     3    1
     6     3     4    1
     7     4     5    1
     8     5     6    1
     9     6     7   am
    10     7     8    2
    11     7    23    1
    12    23    24    1
    13    24    25   ar
    14    25    26   ar
    15    26    27   ar
    16    27    30    1
    17    30    31   ar
    18    31    32   ar
    19    32    33   ar
    20    33    34   ar
    21    27    28   ar
    22    28    29   ar
    23     6     9    1
    24    10     9    1
    25    10    11    1
    26    11    12    1
    27    15    16   ar
    28    16    17   ar
    29    17    18   ar
    30    18    19    1
    31    18    20   ar
    32    20    21    1
    33    21    22    3
    34    20    14   ar
    35    12     1    1
    36    10     3    1
    37    29    24   ar
    38    34    30   ar
