@<TRIPOS>MOLECULE
*****
 24 27 0 0 0
SMALL
GASTEIGER

@<TRIPOS>ATOM
      1 C         143.8621  138.0273  166.2516 C.3     1  UNL1        0.0722
      2 C         142.5933  138.7207  165.8527 C.ar    1  UNL1        0.1250
      3 N         141.8130  138.4767  164.5950 N.ar    1  UNL1       -0.2299
      4 C         140.6194  139.3851  164.6064 C.ar    1  UNL1        0.1082
      5 C         139.4993  139.5828  163.6286 C.ar    1  UNL1        0.0875
      6 C         138.4217  140.5861  163.9154 C.ar    1  UNL1        0.0119
      7 C         138.4643  141.3915  165.1801 C.ar    1  UNL1        0.0023
      8 C         139.5844  141.1938  166.1579 C.ar    1  UNL1        0.0191
      9 C         140.6619  140.1906  165.8711 C.ar    1  UNL1        0.0837
     10 N         141.8819  139.7800  166.6413 N.ar    1  UNL1       -0.2882
     11 C         142.3144  140.3318  167.9674 C.ar    1  UNL1        0.0953
     12 C         142.1942  139.6387  169.2922 C.ar    1  UNL1        0.0250
     13 C         142.7486  140.5521  170.3451 C.ar    1  UNL1        0.0131
     14 C         143.2114  141.8096  169.6709 C.ar    1  UNL1        0.0841
     15 S         142.9430  141.6734  168.2014 S.2     1  UNL1       -0.0648
     16 C         143.8333  142.9951  170.3474 C.2     1  UNL1        0.2519
     17 O         142.9638  144.0216  171.0111 O.2     1  UNL1       -0.2696
     18 N         145.3248  143.1543  170.3603 N.am    1  UNL1       -0.3021
     19 H         145.8955  142.4806  169.9248 H       1  UNL1        0.1497
     20 C         145.9467  144.3398  171.0369 C.3     1  UNL1        0.0720
     21 C         147.1636  145.0575  171.5408 C.3     1  UNL1        0.0213
     22 C         145.8068  145.6756  171.7048 C.3     1  UNL1        0.0213
     23 C         139.4568  138.7774  162.3639 C.1     1  UNL1        0.1020
     24 N         139.4142  137.9719  161.0992 N.1     1  UNL1       -0.1908
@<TRIPOS>BOND
     1     1     2    1
     2     2     3   ar
     3     3     4   ar
     4     4     5   ar
     5     5    23    1
     6    23    24    3
     7     5     6   ar
     8     6     7   ar
     9     7     8   ar
    10     8     9   ar
    11     9    10   ar
    12    10    11    1
    13    11    12   ar
    14    12    13   ar
    15    13    14   ar
    16    14    16    1
    17    16    17    2
    18    16    18   am
    19    18    20    1
    20    20    21    1
    21    21    22    1
    22    14    15   ar
    23    10     2   ar
    24    15    11   ar
    25     9     4   ar
    26    22    20    1
    27    18    19    1
@<TRIPOS>MOLECULE
*****
 24 27 0 0 0
SMALL
GASTEIGER

@<TRIPOS>ATOM
      1 C         137.3538  138.2444  167.3288 C.3     1  UNL1        0.0722
      2 C         138.5342  139.1677  167.3941 C.ar    1  UNL1        0.1250
      3 N         139.0344  139.8739  168.6192 N.ar    1  UNL1       -0.2299
      4 C         140.2310  140.6896  168.2281 C.ar    1  UNL1        0.1082
      5 C         141.1335  141.5902  169.0181 C.ar    1  UNL1        0.0875
      6 C         142.2754  142.2887  168.3412 C.ar    1  UNL1        0.0119
      7 C         142.5146  142.0866  166.8742 C.ar    1  UNL1        0.0023
      8 C         141.6120  141.1860  166.0842 C.ar    1  UNL1        0.0191
      9 C         140.4702  140.4875  166.7611 C.ar    1  UNL1        0.0837
     10 N         139.4215  139.5469  166.2457 N.ar    1  UNL1       -0.2882
     11 C         139.2844  139.0694  164.8304 C.ar    1  UNL1        0.0953
     12 C         139.5611  137.6798  164.3380 C.ar    1  UNL1        0.0250
     13 C         139.2941  137.6492  162.8623 C.ar    1  UNL1        0.0131
     14 C         138.8524  139.0199  162.4425 C.ar    1  UNL1        0.0841
     15 S         138.8464  139.8975  163.6590 S.2     1  UNL1       -0.0648
     16 C         138.4818  139.4392  161.0509 C.2     1  UNL1        0.2519
     17 O         137.0377  139.5531  160.6614 O.2     1  UNL1       -0.2696
     18 N         139.5552  139.7446  160.0487 N.am    1  UNL1       -0.3021
     19 H         140.5030  139.6699  160.3043 H       1  UNL1        0.1497
     20 C         139.1845  140.1639  158.6570 C.3     1  UNL1        0.0720
     21 C         139.2314  139.9349  157.1754 C.3     1  UNL1        0.0213
     22 C         138.4957  141.1193  157.7282 C.3     1  UNL1        0.0213
     23 C         140.8943  141.7923  170.4850 C.1     1  UNL1        0.1020
     24 N         140.6550  141.9944  171.9520 N.1     1  UNL1       -0.1908
@<TRIPOS>BOND
     1     1     2    1
     2     2     3   ar
     3     3     4   ar
     4     4     5   ar
     5     5    23    1
     6    23    24    3
     7     5     6   ar
     8     6     7   ar
     9     7     8   ar
    10     8     9   ar
    11     9    10   ar
    12    10    11    1
    13    11    12   ar
    14    12    13   ar
    15    13    14   ar
    16    14    16    1
    17    16    17    2
    18    16    18   am
    19    18    20    1
    20    20    21    1
    21    21    22    1
    22    14    15   ar
    23    10     2   ar
    24    15    11   ar
    25     9     4   ar
    26    22    20    1
    27    18    19    1
@<TRIPOS>MOLECULE
*****
 24 27 0 0 0
SMALL
GASTEIGER

@<TRIPOS>ATOM
      1 C         139.3287  143.3585  165.0858 C.3     1  UNL1        0.0722
      2 C         140.4558  142.3765  164.9614 C.ar    1  UNL1        0.1250
      3 N         141.2612  142.1109  163.7241 N.ar    1  UNL1       -0.2299
      4 C         142.2784  141.0579  164.0504 C.ar    1  UNL1        0.1082
      5 C         143.3428  140.4001  163.2232 C.ar    1  UNL1        0.0875
      6 C         144.2305  139.3571  163.8348 C.ar    1  UNL1        0.0119
      7 C         144.0538  138.9719  165.2737 C.ar    1  UNL1        0.0023
      8 C         142.9894  139.6298  166.1010 C.ar    1  UNL1        0.0191
      9 C         142.1017  140.6728  165.4893 C.ar    1  UNL1        0.0837
     10 N         140.9753  141.4877  166.0523 N.ar    1  UNL1       -0.2882
     11 C         140.4590  141.4248  167.4592 C.ar    1  UNL1        0.0953
     12 C         140.5569  142.5159  168.4839 C.ar    1  UNL1        0.0250
     13 C         139.9125  142.0253  169.7464 C.ar    1  UNL1        0.0131
     14 C         139.4164  140.6309  169.5022 C.ar    1  UNL1        0.0841
     15 S         139.7541  140.2599  168.0885 S.2     1  UNL1       -0.0648
     16 C         138.7071  139.7606  170.4967 C.2     1  UNL1        0.2519
     17 O         139.4675  139.1519  171.6375 O.2     1  UNL1       -0.2696
     18 N         137.2374  139.4988  170.3506 N.am    1  UNL1       -0.3021
     19 H         136.7383  139.8983  169.6019 H       1  UNL1        0.1497
     20 C         136.5281  138.6284  171.3453 C.3     1  UNL1        0.0720
     21 C         135.3786  138.3946  172.2801 C.3     1  UNL1        0.0213
     22 C         136.4492  137.3544  172.1332 C.3     1  UNL1        0.0213
     23 C         143.5195  140.7852  161.7843 C.1     1  UNL1        0.1020
     24 N         143.6962  141.1704  160.3454 N.1     1  UNL1       -0.1908
@<TRIPOS>BOND
     1     1     2    1
     2     2     3   ar
     3     3     4   ar
     4     4     5   ar
     5     5    23    1
     6    23    24    3
     7     5     6   ar
     8     6     7   ar
     9     7     8   ar
    10     8     9   ar
    11     9    10   ar
    12    10    11    1
    13    11    12   ar
    14    12    13   ar
    15    13    14   ar
    16    14    16    1
    17    16    17    2
    18    16    18   am
    19    18    20    1
    20    20    21    1
    21    21    22    1
    22    14    15   ar
    23    10     2   ar
    24    15    11   ar
    25     9     4   ar
    26    22    20    1
    27    18    19    1
@<TRIPOS>MOLECULE
*****
 24 27 0 0 0
SMALL
GASTEIGER

@<TRIPOS>ATOM
      1 C         137.8282  138.3664  166.6876 C.3     1  UNL1        0.0722
      2 C         138.9735  139.2849  166.9953 C.ar    1  UNL1        0.1250
      3 N         139.0867  140.1829  168.1915 N.ar    1  UNL1       -0.2299
      4 C         140.3898  140.9197  168.0964 C.ar    1  UNL1        0.1082
      5 C         141.0355  141.9364  168.9903 C.ar    1  UNL1        0.0875
      6 C         142.3734  142.5106  168.6293 C.ar    1  UNL1        0.0119
      7 C         143.0655  142.0680  167.3743 C.ar    1  UNL1        0.0023
      8 C         142.4198  141.0513  166.4803 C.ar    1  UNL1        0.0191
      9 C         141.0820  140.4771  166.8413 C.ar    1  UNL1        0.0837
     10 N         140.2066  139.4668  166.1609 N.ar    1  UNL1       -0.2882
     11 C         140.5110  138.7621  164.8722 C.ar    1  UNL1        0.0953
     12 C         141.0102  137.3543  164.7337 C.ar    1  UNL1        0.0250
     13 C         141.1774  137.0635  163.2717 C.ar    1  UNL1        0.0131
     14 C         140.7816  138.2915  162.5066 C.ar    1  UNL1        0.0841
     15 S         140.3698  139.3412  163.4958 S.2     1  UNL1       -0.0648
     16 C         140.7953  138.4432  161.0144 C.2     1  UNL1        0.2519
     17 O         142.0848  138.3140  160.2591 O.2     1  UNL1       -0.2696
     18 N         139.5194  138.7241  160.2774 N.am    1  UNL1       -0.3021
     19 H         138.6730  138.8089  160.7730 H       1  UNL1        0.1497
     20 C         139.5331  138.8757  158.7851 C.3     1  UNL1        0.0720
     21 C         139.1647  139.6504  157.5546 C.3     1  UNL1        0.0213
     22 C         139.9252  138.3636  157.4309 C.3     1  UNL1        0.0213
     23 C         140.3433  142.3790  170.2453 C.1     1  UNL1        0.1020
     24 N         139.6512  142.8216  171.5004 N.1     1  UNL1       -0.1908
@<TRIPOS>BOND
     1     1     2    1
     2     2     3   ar
     3     3     4   ar
     4     4     5   ar
     5     5    23    1
     6    23    24    3
     7     5     6   ar
     8     6     7   ar
     9     7     8   ar
    10     8     9   ar
    11     9    10   ar
    12    10    11    1
    13    11    12   ar
    14    12    13   ar
    15    13    14   ar
    16    14    16    1
    17    16    17    2
    18    16    18   am
    19    18    20    1
    20    20    21    1
    21    21    22    1
    22    14    15   ar
    23    10     2   ar
    24    15    11   ar
    25     9     4   ar
    26    22    20    1
    27    18    19    1
@<TRIPOS>MOLECULE
*****
 24 27 0 0 0
SMALL
GASTEIGER

@<TRIPOS>ATOM
      1 C         144.3801  143.7300  165.0397 C.3     1  UNL1        0.0722
      2 C         143.2179  142.8721  165.4439 C.ar    1  UNL1        0.1250
      3 N         143.2260  141.8262  166.5192 N.ar    1  UNL1       -0.2299
      4 C         141.8567  141.2171  166.5836 C.ar    1  UNL1        0.1082
      5 C         141.2775  140.1394  167.4514 C.ar    1  UNL1        0.0875
      6 C         139.8439  139.7311  167.2837 C.ar    1  UNL1        0.0119
      7 C         138.9896  140.4005  166.2483 C.ar    1  UNL1        0.0023
      8 C         139.5689  141.4782  165.3805 C.ar    1  UNL1        0.0191
      9 C         141.0024  141.8865  165.5482 C.ar    1  UNL1        0.0837
     10 N         141.8437  142.9093  164.8438 N.ar    1  UNL1       -0.2882
     11 C         141.3903  143.8110  163.7342 C.ar    1  UNL1        0.0953
     12 C         140.7999  145.1804  163.8964 C.ar    1  UNL1        0.0250
     13 C         140.4924  145.7174  162.5300 C.ar    1  UNL1        0.0131
     14 C         140.8927  144.6799  161.5232 C.ar    1  UNL1        0.0841
     15 S         141.4476  143.5017  162.2676 S.2     1  UNL1       -0.0648
     16 C         140.7612  144.7996  160.0339 C.2     1  UNL1        0.2519
     17 O         139.5862  144.1846  159.3328 O.2     1  UNL1       -0.2696
     18 N         141.8046  145.5342  159.2454 N.am    1  UNL1       -0.3021
     19 H         142.5757  145.9378  159.7055 H       1  UNL1        0.1497
     20 C         141.6730  145.6539  157.7560 C.3     1  UNL1        0.0720
     21 C         142.1853  145.3544  156.3784 C.3     1  UNL1        0.0213
     22 C         140.9328  146.1607  156.5539 C.3     1  UNL1        0.0213
     23 C         142.1318  139.4701  168.4868 C.1     1  UNL1        0.1020
     24 N         142.9861  138.8007  169.5222 N.1     1  UNL1       -0.1908
@<TRIPOS>BOND
     1     1     2    1
     2     2     3   ar
     3     3     4   ar
     4     4     5   ar
     5     5    23    1
     6    23    24    3
     7     5     6   ar
     8     6     7   ar
     9     7     8   ar
    10     8     9   ar
    11     9    10   ar
    12    10    11    1
    13    11    12   ar
    14    12    13   ar
    15    13    14   ar
    16    14    16    1
    17    16    17    2
    18    16    18   am
    19    18    20    1
    20    20    21    1
    21    21    22    1
    22    14    15   ar
    23    10     2   ar
    24    15    11   ar
    25     9     4   ar
    26    22    20    1
    27    18    19    1
@<TRIPOS>MOLECULE
*****
 24 27 0 0 0
SMALL
GASTEIGER

@<TRIPOS>ATOM
      1 C         137.6133  138.6694  161.7109 C.3     1  UNL1        0.0722
      2 C         139.1093  138.5649  161.6745 C.ar    1  UNL1        0.1250
      3 N         139.9501  138.3734  160.4472 N.ar    1  UNL1       -0.2299
      4 C         141.3875  138.3236  160.8731 C.ar    1  UNL1        0.1082
      5 C         142.6592  138.1526  160.0962 C.ar    1  UNL1        0.0875
      6 C         143.9784  138.1425  160.8100 C.ar    1  UNL1        0.0119
      7 C         144.0259  138.3032  162.3006 C.ar    1  UNL1        0.0023
      8 C         142.7543  138.4742  163.0774 C.ar    1  UNL1        0.0191
      9 C         141.4350  138.4843  162.3637 C.ar    1  UNL1        0.0837
     10 N         140.0270  138.6335  162.8589 N.ar    1  UNL1       -0.2882
     11 C         139.6100  138.8187  164.2879 C.ar    1  UNL1        0.0953
     12 C         138.5202  138.0667  164.9928 C.ar    1  UNL1        0.0250
     13 C         138.4462  138.5716  166.4033 C.ar    1  UNL1        0.0131
     14 C         139.4903  139.6357  166.5702 C.ar    1  UNL1        0.0841
     15 S         140.2095  139.7883  165.2627 S.2     1  UNL1       -0.0648
     16 C         139.7665  140.4109  167.8242 C.2     1  UNL1        0.2519
     17 O         139.5455  139.7735  169.1640 O.2     1  UNL1       -0.2696
     18 N         140.2638  141.8234  167.7385 N.am    1  UNL1       -0.3021
     19 H         140.4089  142.2417  166.8592 H       1  UNL1        0.1497
     20 C         140.5401  142.5986  168.9926 C.3     1  UNL1        0.0720
     21 C         140.0478  143.2638  170.2436 C.3     1  UNL1        0.0213
     22 C         141.5110  143.2762  169.9137 C.3     1  UNL1        0.0213
     23 C         142.6116  137.9919  158.6056 C.1     1  UNL1        0.1020
     24 N         142.5641  137.8311  157.1150 N.1     1  UNL1       -0.1908
@<TRIPOS>BOND
     1     1     2    1
     2     2     3   ar
     3     3     4   ar
     4     4     5   ar
     5     5    23    1
     6    23    24    3
     7     5     6   ar
     8     6     7   ar
     9     7     8   ar
    10     8     9   ar
    11     9    10   ar
    12    10    11    1
    13    11    12   ar
    14    12    13   ar
    15    13    14   ar
    16    14    16    1
    17    16    17    2
    18    16    18   am
    19    18    20    1
    20    20    21    1
    21    21    22    1
    22    14    15   ar
    23    10     2   ar
    24    15    11   ar
    25     9     4   ar
    26    22    20    1
    27    18    19    1
@<TRIPOS>MOLECULE
*****
 24 27 0 0 0
SMALL
GASTEIGER

@<TRIPOS>ATOM
      1 C         144.0926  141.1652  164.7826 C.3     1  UNL1        0.0722
      2 C         143.0669  141.0780  165.8737 C.ar    1  UNL1        0.1250
      3 N         143.0864  141.8408  167.1651 N.ar    1  UNL1       -0.2299
      4 C         141.8732  141.4470  167.9544 C.ar    1  UNL1        0.1082
      5 C         141.3697  141.8746  169.3011 C.ar    1  UNL1        0.0875
      6 C         140.0968  141.2961  169.8442 C.ar    1  UNL1        0.0119
      7 C         139.3275  140.2898  169.0406 C.ar    1  UNL1        0.0023
      8 C         139.8311  139.8622  167.6940 C.ar    1  UNL1        0.0191
      9 C         141.1039  140.4408  167.1509 C.ar    1  UNL1        0.0837
     10 N         141.8417  140.2127  165.8649 N.ar    1  UNL1       -0.2882
     11 C         141.4270  139.2827  164.7635 C.ar    1  UNL1        0.0953
     12 C         141.5509  137.7879  164.7784 C.ar    1  UNL1        0.0250
     13 C         141.0160  137.2655  163.4780 C.ar    1  UNL1        0.0131
     14 C         140.5615  138.4374  162.6594 C.ar    1  UNL1        0.0841
     15 S         140.8156  139.6841  163.4540 S.2     1  UNL1       -0.0648
     16 C         139.9589  138.3738  161.2874 C.2     1  UNL1        0.2519
     17 O         138.5117  138.0166  161.1195 O.2     1  UNL1       -0.2696
     18 N         140.8034  138.6674  160.0829 N.am    1  UNL1       -0.3021
     19 H         141.7532  138.9019  160.1930 H       1  UNL1        0.1497
     20 C         140.2008  138.6038  158.7108 C.3     1  UNL1        0.0720
     21 C         139.4807  139.2700  157.5761 C.3     1  UNL1        0.0213
     22 C         139.8770  137.8273  157.4689 C.3     1  UNL1        0.0213
     23 C         142.1390  142.8809  170.1046 C.1     1  UNL1        0.1020
     24 N         142.9082  143.8871  170.9082 N.1     1  UNL1       -0.1908
@<TRIPOS>BOND
     1     1     2    1
     2     2     3   ar
     3     3     4   ar
     4     4     5   ar
     5     5    23    1
     6    23    24    3
     7     5     6   ar
     8     6     7   ar
     9     7     8   ar
    10     8     9   ar
    11     9    10   ar
    12    10    11    1
    13    11    12   ar
    14    12    13   ar
    15    13    14   ar
    16    14    16    1
    17    16    17    2
    18    16    18   am
    19    18    20    1
    20    20    21    1
    21    21    22    1
    22    14    15   ar
    23    10     2   ar
    24    15    11   ar
    25     9     4   ar
    26    22    20    1
    27    18    19    1
@<TRIPOS>MOLECULE
*****
 24 27 0 0 0
SMALL
GASTEIGER

@<TRIPOS>ATOM
      1 C         140.8283  139.4623  163.8236 C.3     1  UNL1        0.0722
      2 C         140.9045  140.1411  165.1591 C.ar    1  UNL1        0.1250
      3 N         141.4659  139.5496  166.4180 N.ar    1  UNL1       -0.2299
      4 C         141.3411  140.5735  167.5071 C.ar    1  UNL1        0.1082
      5 C         141.7264  140.5491  168.9565 C.ar    1  UNL1        0.0875
      6 C         141.4732  141.7491  169.8201 C.ar    1  UNL1        0.0119
      7 C         140.8347  142.9735  169.2343 C.ar    1  UNL1        0.0023
      8 C         140.4494  142.9979  167.7848 C.ar    1  UNL1        0.0191
      9 C         140.7026  141.7979  166.9212 C.ar    1  UNL1        0.0837
     10 N         140.4328  141.5306  165.4701 N.ar    1  UNL1       -0.2882
     11 C         139.8020  142.4853  164.5003 C.ar    1  UNL1        0.0953
     12 C         138.3794  142.9600  164.5293 C.ar    1  UNL1        0.0250
     13 C         138.1811  143.9010  163.3781 C.ar    1  UNL1        0.0131
     14 C         139.4812  144.0079  162.6375 C.ar    1  UNL1        0.0841
     15 S         140.4829  143.1329  163.3312 S.2     1  UNL1       -0.0648
     16 C         139.7350  144.8430  161.4177 C.2     1  UNL1        0.2519
     17 O         139.2468  146.2604  161.3642 O.2     1  UNL1       -0.2696
     18 N         140.4771  144.2609  160.2514 N.am    1  UNL1       -0.3021
     19 H         140.7976  143.3307  160.2864 H       1  UNL1        0.1497
     20 C         140.7309  145.0961  159.0315 C.3     1  UNL1        0.0720
     21 C         141.6885  145.7847  158.1048 C.3     1  UNL1        0.0213
     22 C         140.2128  145.8541  157.8453 C.3     1  UNL1        0.0213
     23 C         142.3649  139.3248  169.5424 C.1     1  UNL1        0.1020
     24 N         143.0034  138.1004  170.1283 N.1     1  UNL1       -0.1908
@<TRIPOS>BOND
     1     1     2    1
     2     2     3   ar
     3     3     4   ar
     4     4     5   ar
     5     5    23    1
     6    23    24    3
     7     5     6   ar
     8     6     7   ar
     9     7     8   ar
    10     8     9   ar
    11     9    10   ar
    12    10    11    1
    13    11    12   ar
    14    12    13   ar
    15    13    14   ar
    16    14    16    1
    17    16    17    2
    18    16    18   am
    19    18    20    1
    20    20    21    1
    21    21    22    1
    22    14    15   ar
    23    10     2   ar
    24    15    11   ar
    25     9     4   ar
    26    22    20    1
    27    18    19    1
@<TRIPOS>MOLECULE
*****
 24 27 0 0 0
SMALL
GASTEIGER

@<TRIPOS>ATOM
      1 C         139.3717  138.4383  164.4772 C.3     1  UNL1        0.0722
      2 C         139.6531  139.3549  165.6308 C.ar    1  UNL1        0.1250
      3 N         139.0287  139.2760  166.9923 N.ar    1  UNL1       -0.2299
      4 C         139.5980  140.3836  167.8284 C.ar    1  UNL1        0.1082
      5 C         139.3536  140.7956  169.2498 C.ar    1  UNL1        0.0875
      6 C         140.0855  141.9711  169.8263 C.ar    1  UNL1        0.0119
      7 C         141.0618  142.7346  168.9815 C.ar    1  UNL1        0.0023
      8 C         141.3063  142.3226  167.5601 C.ar    1  UNL1        0.0191
      9 C         140.5744  141.1471  166.9835 C.ar    1  UNL1        0.0837
     10 N         140.6084  140.5113  165.6253 N.ar    1  UNL1       -0.2882
     11 C         141.4500  140.9543  164.4654 C.ar    1  UNL1        0.0953
     12 C         142.6968  140.2813  163.9730 C.ar    1  UNL1        0.0250
     13 C         143.2100  141.0590  162.7974 C.ar    1  UNL1        0.0131
     14 C         142.2803  142.2127  162.5633 C.ar    1  UNL1        0.0841
     15 S         141.1926  142.1478  163.5942 S.2     1  UNL1       -0.0648
     16 C         142.4147  143.2490  161.4874 C.2     1  UNL1        0.2519
     17 O         143.2954  144.4441  161.7029 O.2     1  UNL1       -0.2696
     18 N         141.6685  143.0904  160.1959 N.am    1  UNL1       -0.3021
     19 H         141.0905  142.3061  160.0544 H       1  UNL1        0.1497
     20 C         141.8030  144.1269  159.1199 C.3     1  UNL1        0.0720
     21 C         142.3854  144.5733  157.8116 C.3     1  UNL1        0.0213
     22 C         141.4534  145.4757  158.5645 C.3     1  UNL1        0.0213
     23 C         138.3772  140.0321  170.0946 C.1     1  UNL1        0.1020
     24 N         137.4009  139.2686  170.9395 N.1     1  UNL1       -0.1908
@<TRIPOS>BOND
     1     1     2    1
     2     2     3   ar
     3     3     4   ar
     4     4     5   ar
     5     5    23    1
     6    23    24    3
     7     5     6   ar
     8     6     7   ar
     9     7     8   ar
    10     8     9   ar
    11     9    10   ar
    12    10    11    1
    13    11    12   ar
    14    12    13   ar
    15    13    14   ar
    16    14    16    1
    17    16    17    2
    18    16    18   am
    19    18    20    1
    20    20    21    1
    21    21    22    1
    22    14    15   ar
    23    10     2   ar
    24    15    11   ar
    25     9     4   ar
    26    22    20    1
    27    18    19    1
