@<TRIPOS>MOLECULE
*****
 24 28 0 0 0
SMALL
GASTEIGER

@<TRIPOS>ATOM
      1 O         137.5132  138.7095  167.2570 O.2     1  UNL1       -0.2666
      2 C         138.8267  139.2837  166.8153 C.2     1  UNL1        0.2834
      3 C         139.2836  139.1071  165.3976 C.ar    1  UNL1        0.1985
      4 N         138.6584  138.4203  164.2196 N.ar    1  UNL1       -0.2227
      5 C         139.5855  138.5702  163.0499 C.ar    1  UNL1        0.0988
      6 C         139.4934  138.0976  161.6293 C.ar    1  UNL1        0.0206
      7 C         140.5994  138.4044  160.6637 C.ar    1  UNL1        0.0016
      8 C         141.7976  139.1838  161.1187 C.ar    1  UNL1        0.0015
      9 C         141.8897  139.6563  162.5393 C.ar    1  UNL1        0.0173
     10 C         140.7836  139.3495  163.5049 C.ar    1  UNL1        0.0790
     11 N         140.5971  139.6813  164.9558 N.ar    1  UNL1       -0.3060
     12 C         141.4535  140.4322  165.9319 C.3     1  UNL1        0.1291
     13 C         140.9965  140.6088  167.3496 C.3     1  UNL1        0.1183
     14 N         139.6831  140.0345  167.7913 N.am    1  UNL1       -0.2716
     15 C         143.0879  140.4356  162.9944 C.ar    1  UNL1        0.0014
     16 C         144.2473  139.7262  163.6287 C.ar    1  UNL1        0.0000
     17 C         145.4455  140.5056  164.0838 C.ar    1  UNL1        0.0000
     18 C         145.4842  141.9943  163.9044 C.ar    1  UNL1        0.0000
     19 C         144.3248  142.7036  163.2700 C.ar    1  UNL1        0.0000
     20 C         143.1266  141.9243  162.8150 C.ar    1  UNL1        0.0000
     21 C         139.2261  140.2112  169.2091 C.3     1  UNL1        0.0938
     22 C         139.8053  141.3080  170.0526 C.3     1  UNL1        0.0199
     23 C         140.7544  141.7607  171.1222 C.3     1  UNL1        0.0018
     24 C         139.8591  142.7550  170.4441 C.3     1  UNL1        0.0018
@<TRIPOS>BOND
     1     1     2    2
     2     2     3    1
     3     3     4   ar
     4     4     5   ar
     5     5     6   ar
     6     6     7   ar
     7     7     8   ar
     8     8     9   ar
     9     9    15    1
    10    15    16   ar
    11    16    17   ar
    12    17    18   ar
    13    18    19   ar
    14    19    20   ar
    15     9    10   ar
    16    10    11   ar
    17    11    12    1
    18    12    13    1
    19    13    14    1
    20    14    21    1
    21    21    22    1
    22    22    23    1
    23    23    24    1
    24    14     2   am
    25    24    22    1
    26    11     3   ar
    27    10     5   ar
    28    20    15   ar
@<TRIPOS>MOLECULE
*****
 24 28 0 0 0
SMALL
GASTEIGER

@<TRIPOS>ATOM
      1 O         140.5484  142.0464  161.2605 O.2     1  UNL1       -0.2666
      2 C         140.9914  142.2632  162.6771 C.2     1  UNL1        0.2834
      3 C         140.3270  141.5138  163.7937 C.ar    1  UNL1        0.1985
      4 N         139.2172  140.5047  163.8045 N.ar    1  UNL1       -0.2227
      5 C         138.9744  140.0979  165.2277 C.ar    1  UNL1        0.0988
      6 C         138.0033  139.1355  165.8448 C.ar    1  UNL1        0.0206
      7 C         137.9920  138.9307  167.3307 C.ar    1  UNL1        0.0016
      8 C         138.9517  139.6884  168.1995 C.ar    1  UNL1        0.0015
      9 C         139.9228  140.6508  167.5825 C.ar    1  UNL1        0.0173
     10 C         139.9341  140.8556  166.0966 C.ar    1  UNL1        0.0790
     11 N         140.7700  141.7307  165.2103 N.ar    1  UNL1       -0.3060
     12 C         141.8775  142.6969  165.5102 C.3     1  UNL1        0.1291
     13 C         142.5418  143.4463  164.3935 C.3     1  UNL1        0.1183
     14 N         142.0988  143.2295  162.9769 N.am    1  UNL1       -0.2716
     15 C         140.8825  141.4085  168.4513 C.ar    1  UNL1        0.0014
     16 C         142.2615  140.8700  168.6925 C.ar    1  UNL1        0.0000
     17 C         143.2212  141.6277  169.5614 C.ar    1  UNL1        0.0000
     18 C         142.8019  142.9238  170.1890 C.ar    1  UNL1        0.0000
     19 C         141.4228  143.4624  169.9478 C.ar    1  UNL1        0.0000
     20 C         140.4631  142.7047  169.0790 C.ar    1  UNL1        0.0000
     21 C         142.7632  143.9789  161.8603 C.3     1  UNL1        0.0938
     22 C         143.6203  143.2463  160.8710 C.3     1  UNL1        0.0199
     23 C         144.8782  142.4963  160.5466 C.3     1  UNL1        0.0018
     24 C         143.8470  142.7272  159.4821 C.3     1  UNL1        0.0018
@<TRIPOS>BOND
     1     1     2    2
     2     2     3    1
     3     3     4   ar
     4     4     5   ar
     5     5     6   ar
     6     6     7   ar
     7     7     8   ar
     8     8     9   ar
     9     9    15    1
    10    15    16   ar
    11    16    17   ar
    12    17    18   ar
    13    18    19   ar
    14    19    20   ar
    15     9    10   ar
    16    10    11   ar
    17    11    12    1
    18    12    13    1
    19    13    14    1
    20    14    21    1
    21    21    22    1
    22    22    23    1
    23    23    24    1
    24    14     2   am
    25    24    22    1
    26    11     3   ar
    27    10     5   ar
    28    20    15   ar
@<TRIPOS>MOLECULE
*****
 24 28 0 0 0
SMALL
GASTEIGER

@<TRIPOS>ATOM
      1 O         142.5864  137.4820  160.3584 O.2     1  UNL1       -0.2666
      2 C         142.0128  138.7085  161.0040 C.2     1  UNL1        0.2834
      3 C         141.1098  138.5768  162.1945 C.ar    1  UNL1        0.1985
      4 N         140.6105  137.3798  162.9480 N.ar    1  UNL1       -0.2227
      5 C         139.7283  137.8664  164.0593 C.ar    1  UNL1        0.0988
      6 C         138.9608  137.1391  165.1232 C.ar    1  UNL1        0.0206
      7 C         138.1474  137.9097  166.1205 C.ar    1  UNL1        0.0016
      8 C         138.1016  139.4075  166.0538 C.ar    1  UNL1        0.0015
      9 C         138.8690  140.1348  164.9899 C.ar    1  UNL1        0.0173
     10 C         139.6824  139.3642  163.9926 C.ar    1  UNL1        0.0790
     11 N         140.5362  139.8032  162.8401 N.ar    1  UNL1       -0.3060
     12 C         140.8655  141.1613  162.2951 C.3     1  UNL1        0.1291
     13 C         141.7684  141.2930  161.1046 C.3     1  UNL1        0.1183
     14 N         142.3421  140.0666  160.4590 N.am    1  UNL1       -0.2716
     15 C         138.8231  141.6326  164.9232 C.ar    1  UNL1        0.0014
     16 C         137.7640  142.3150  164.1092 C.ar    1  UNL1        0.0000
     17 C         137.7181  143.8128  164.0426 C.ar    1  UNL1        0.0000
     18 C         138.7313  144.6282  164.7898 C.ar    1  UNL1        0.0000
     19 C         139.7904  143.9458  165.6038 C.ar    1  UNL1        0.0000
     20 C         139.8363  142.4480  165.6705 C.ar    1  UNL1        0.0000
     21 C         143.2450  140.1983  159.2684 C.3     1  UNL1        0.0938
     22 C         143.6860  141.5561  158.8081 C.3     1  UNL1        0.0199
     23 C         144.7833  142.5389  158.5253 C.3     1  UNL1        0.0018
     24 C         143.3525  142.9251  158.2937 C.3     1  UNL1        0.0018
@<TRIPOS>BOND
     1     1     2    2
     2     2     3    1
     3     3     4   ar
     4     4     5   ar
     5     5     6   ar
     6     6     7   ar
     7     7     8   ar
     8     8     9   ar
     9     9    15    1
    10    15    16   ar
    11    16    17   ar
    12    17    18   ar
    13    18    19   ar
    14    19    20   ar
    15     9    10   ar
    16    10    11   ar
    17    11    12    1
    18    12    13    1
    19    13    14    1
    20    14    21    1
    21    21    22    1
    22    22    23    1
    23    23    24    1
    24    14     2   am
    25    24    22    1
    26    11     3   ar
    27    10     5   ar
    28    20    15   ar
@<TRIPOS>MOLECULE
*****
 24 28 0 0 0
SMALL
GASTEIGER

@<TRIPOS>ATOM
      1 O         140.5444  141.6866  161.3625 O.2     1  UNL1       -0.2666
      2 C         140.3605  141.9436  162.8288 C.2     1  UNL1        0.2834
      3 C         141.0908  141.1040  163.8348 C.ar    1  UNL1        0.1985
      4 N         142.0506  139.9616  163.6813 N.ar    1  UNL1       -0.2227
      5 C         142.4598  139.5124  165.0527 C.ar    1  UNL1        0.0988
      6 C         143.3848  138.4277  165.5192 C.ar    1  UNL1        0.0206
      7 C         143.6029  138.2078  166.9868 C.ar    1  UNL1        0.0016
      8 C         142.8960  139.0727  167.9880 C.ar    1  UNL1        0.0015
      9 C         141.9711  140.1575  167.5215 C.ar    1  UNL1        0.0173
     10 C         141.7530  140.3773  166.0538 C.ar    1  UNL1        0.0790
     11 N         140.9069  141.3610  165.3011 N.ar    1  UNL1       -0.3060
     12 C         139.9927  142.4575  165.7615 C.3     1  UNL1        0.1291
     13 C         139.2624  143.2970  164.7556 C.3     1  UNL1        0.1183
     14 N         139.4463  143.0401  163.2892 N.am    1  UNL1       -0.2716
     15 C         141.2642  141.0223  168.5226 C.ar    1  UNL1        0.0014
     16 C         141.8350  142.3586  168.8950 C.ar    1  UNL1        0.0000
     17 C         141.1281  143.2235  169.8961 C.ar    1  UNL1        0.0000
     18 C         139.8505  142.7521  170.5249 C.ar    1  UNL1        0.0000
     19 C         139.2797  141.4159  170.1526 C.ar    1  UNL1        0.0000
     20 C         139.9866  140.5510  169.1515 C.ar    1  UNL1        0.0000
     21 C         138.7161  143.8796  162.2833 C.3     1  UNL1        0.0938
     22 C         139.4035  145.0479  161.6409 C.3     1  UNL1        0.0199
     23 C         139.6269  146.5275  161.5377 C.3     1  UNL1        0.0018
     24 C         140.3707  145.5917  160.6316 C.3     1  UNL1        0.0018
@<TRIPOS>BOND
     1     1     2    2
     2     2     3    1
     3     3     4   ar
     4     4     5   ar
     5     5     6   ar
     6     6     7   ar
     7     7     8   ar
     8     8     9   ar
     9     9    15    1
    10    15    16   ar
    11    16    17   ar
    12    17    18   ar
    13    18    19   ar
    14    19    20   ar
    15     9    10   ar
    16    10    11   ar
    17    11    12    1
    18    12    13    1
    19    13    14    1
    20    14    21    1
    21    21    22    1
    22    22    23    1
    23    23    24    1
    24    14     2   am
    25    24    22    1
    26    11     3   ar
    27    10     5   ar
    28    20    15   ar
@<TRIPOS>MOLECULE
*****
 24 28 0 0 0
SMALL
GASTEIGER

@<TRIPOS>ATOM
      1 O         137.5174  138.3577  161.7022 O.2     1  UNL1       -0.2666
      2 C         138.5361  139.3666  162.1432 C.2     1  UNL1        0.2834
      3 C         138.8830  140.5214  161.2510 C.ar    1  UNL1        0.1985
      4 N         138.3899  140.9239  159.8928 N.ar    1  UNL1       -0.2227
      5 C         139.1039  142.1815  159.4943 C.ar    1  UNL1        0.0988
      6 C         139.0239  143.0338  158.2626 C.ar    1  UNL1        0.0206
      7 C         139.8782  144.2608  158.1429 C.ar    1  UNL1        0.0016
      8 C         140.8125  144.6356  159.2549 C.ar    1  UNL1        0.0015
      9 C         140.8925  143.7833  160.4866 C.ar    1  UNL1        0.0173
     10 C         140.0382  142.5562  160.6063 C.ar    1  UNL1        0.0790
     11 N         139.9017  141.5302  161.6920 N.ar    1  UNL1       -0.3060
     12 C         140.5734  141.3843  163.0252 C.3     1  UNL1        0.1291
     13 C         140.2265  140.2295  163.9174 C.3     1  UNL1        0.1183
     14 N         139.2078  139.2206  163.4764 N.am    1  UNL1       -0.2716
     15 C         141.8269  144.1581  161.5986 C.ar    1  UNL1        0.0014
     16 C         141.3438  145.0232  162.7247 C.ar    1  UNL1        0.0000
     17 C         142.2781  145.3980  163.8367 C.ar    1  UNL1        0.0000
     18 C         143.6956  144.9076  163.8226 C.ar    1  UNL1        0.0000
     19 C         144.1787  144.0424  162.6966 C.ar    1  UNL1        0.0000
     20 C         143.2444  143.6676  161.5846 C.ar    1  UNL1        0.0000
     21 C         138.8608  138.0658  164.3687 C.3     1  UNL1        0.0938
     22 C         138.3832  138.3165  165.7683 C.3     1  UNL1        0.0199
     23 C         137.5450  137.9164  166.9461 C.3     1  UNL1        0.0018
     24 C         138.3943  139.1508  167.0148 C.3     1  UNL1        0.0018
@<TRIPOS>BOND
     1     1     2    2
     2     2     3    1
     3     3     4   ar
     4     4     5   ar
     5     5     6   ar
     6     6     7   ar
     7     7     8   ar
     8     8     9   ar
     9     9    15    1
    10    15    16   ar
    11    16    17   ar
    12    17    18   ar
    13    18    19   ar
    14    19    20   ar
    15     9    10   ar
    16    10    11   ar
    17    11    12    1
    18    12    13    1
    19    13    14    1
    20    14    21    1
    21    21    22    1
    22    22    23    1
    23    23    24    1
    24    14     2   am
    25    24    22    1
    26    11     3   ar
    27    10     5   ar
    28    20    15   ar
@<TRIPOS>MOLECULE
*****
 24 28 0 0 0
SMALL
GASTEIGER

@<TRIPOS>ATOM
      1 O         137.6870  138.0186  161.7592 O.2     1  UNL1       -0.2666
      2 C         138.6089  139.1827  161.9713 C.2     1  UNL1        0.2834
      3 C         138.9725  139.6076  163.3631 C.ar    1  UNL1        0.1985
      4 N         138.5808  139.0753  164.7097 N.ar    1  UNL1       -0.2227
      5 C         139.2605  139.9104  165.7540 C.ar    1  UNL1        0.0988
      6 C         139.2451  139.8516  167.2527 C.ar    1  UNL1        0.0206
      7 C         140.0416  140.8413  168.0503 C.ar    1  UNL1        0.0016
      8 C         140.8535  141.8897  167.3492 C.ar    1  UNL1        0.0015
      9 C         140.8689  141.9485  165.8504 C.ar    1  UNL1        0.0173
     10 C         140.0724  140.9589  165.0528 C.ar    1  UNL1        0.0790
     11 N         139.8944  140.7717  163.5752 N.ar    1  UNL1       -0.3060
     12 C         140.4527  141.5109  162.3955 C.3     1  UNL1        0.1291
     13 C         140.0891  141.0860  161.0036 C.3     1  UNL1        0.1183
     14 N         139.1672  139.9219  160.7915 N.am    1  UNL1       -0.2716
     15 C         141.6808  142.9969  165.1493 C.ar    1  UNL1        0.0014
     16 C         141.0009  144.1804  164.5271 C.ar    1  UNL1        0.0000
     17 C         141.8128  145.2288  163.8259 C.ar    1  UNL1        0.0000
     18 C         143.3046  145.0938  163.7470 C.ar    1  UNL1        0.0000
     19 C         143.9845  143.9104  164.3692 C.ar    1  UNL1        0.0000
     20 C         143.1726  142.8619  165.0703 C.ar    1  UNL1        0.0000
     21 C         138.8035  139.4970  159.3996 C.3     1  UNL1        0.0938
     22 C         139.8007  138.7595  158.5560 C.3     1  UNL1        0.0199
     23 C         141.2167  138.3504  158.2776 C.3     1  UNL1        0.0018
     24 C         140.1118  137.8911  157.3731 C.3     1  UNL1        0.0018
@<TRIPOS>BOND
     1     1     2    2
     2     2     3    1
     3     3     4   ar
     4     4     5   ar
     5     5     6   ar
     6     6     7   ar
     7     7     8   ar
     8     8     9   ar
     9     9    15    1
    10    15    16   ar
    11    16    17   ar
    12    17    18   ar
    13    18    19   ar
    14    19    20   ar
    15     9    10   ar
    16    10    11   ar
    17    11    12    1
    18    12    13    1
    19    13    14    1
    20    14    21    1
    21    21    22    1
    22    22    23    1
    23    23    24    1
    24    14     2   am
    25    24    22    1
    26    11     3   ar
    27    10     5   ar
    28    20    15   ar
@<TRIPOS>MOLECULE
*****
 24 28 0 0 0
SMALL
GASTEIGER

@<TRIPOS>ATOM
      1 O         143.7649  138.1498  167.2990 O.2     1  UNL1       -0.2666
      2 C         142.8008  139.1659  166.7621 C.2     1  UNL1        0.2834
      3 C         142.3424  139.0848  165.3362 C.ar    1  UNL1        0.1985
      4 N         142.6664  138.1240  164.2308 N.ar    1  UNL1       -0.2227
      5 C         141.9025  138.5461  163.0109 C.ar    1  UNL1        0.0988
      6 C         141.8290  137.9759  161.6255 C.ar    1  UNL1        0.0206
      7 C         140.9594  138.6274  160.5915 C.ar    1  UNL1        0.0016
      8 C         140.1633  139.8492  160.9428 C.ar    1  UNL1        0.0015
      9 C         140.2368  140.4195  162.3282 C.ar    1  UNL1        0.0173
     10 C         141.1064  139.7679  163.3622 C.ar    1  UNL1        0.0790
     11 N         141.3783  140.1008  164.7993 N.ar    1  UNL1       -0.3060
     12 C         140.8726  141.1979  165.6885 C.3     1  UNL1        0.1291
     13 C         141.3309  141.2790  167.1145 C.3     1  UNL1        0.1183
     14 N         142.2950  140.2629  167.6513 N.am    1  UNL1       -0.2716
     15 C         139.4408  141.6413  162.6796 C.ar    1  UNL1        0.0014
     16 C         138.1245  141.5015  163.3852 C.ar    1  UNL1        0.0000
     17 C         137.3284  142.7233  163.7366 C.ar    1  UNL1        0.0000
     18 C         137.8486  144.0849  163.3823 C.ar    1  UNL1        0.0000
     19 C         139.1648  144.2246  162.6767 C.ar    1  UNL1        0.0000
     20 C         139.9609  143.0028  162.3254 C.ar    1  UNL1        0.0000
     21 C         142.7534  140.3440  169.0773 C.3     1  UNL1        0.0938
     22 C         143.2003  141.6572  169.6479 C.3     1  UNL1        0.0199
     23 C         142.8829  142.9431  170.3520 C.3     1  UNL1        0.0018
     24 C         144.2920  142.6459  169.9322 C.3     1  UNL1        0.0018
@<TRIPOS>BOND
     1     1     2    2
     2     2     3    1
     3     3     4   ar
     4     4     5   ar
     5     5     6   ar
     6     6     7   ar
     7     7     8   ar
     8     8     9   ar
     9     9    15    1
    10    15    16   ar
    11    16    17   ar
    12    17    18   ar
    13    18    19   ar
    14    19    20   ar
    15     9    10   ar
    16    10    11   ar
    17    11    12    1
    18    12    13    1
    19    13    14    1
    20    14    21    1
    21    21    22    1
    22    22    23    1
    23    23    24    1
    24    14     2   am
    25    24    22    1
    26    11     3   ar
    27    10     5   ar
    28    20    15   ar
@<TRIPOS>MOLECULE
*****
 24 28 0 0 0
SMALL
GASTEIGER

@<TRIPOS>ATOM
      1 O         137.4900  138.1153  161.7151 O.2     1  UNL1       -0.2666
      2 C         138.8425  138.7066  161.9817 C.2     1  UNL1        0.2834
      3 C         139.2417  139.0642  163.3827 C.ar    1  UNL1        0.1985
      4 N         138.5196  138.9496  164.6924 N.ar    1  UNL1       -0.2227
      5 C         139.4258  139.4700  165.7685 C.ar    1  UNL1        0.0988
      6 C         139.2491  139.6030  167.2521 C.ar    1  UNL1        0.0206
      7 C         140.3546  140.1723  168.0910 C.ar    1  UNL1        0.0016
      8 C         141.6368  140.6085  167.4463 C.ar    1  UNL1        0.0015
      9 C         141.8135  140.4755  165.9628 C.ar    1  UNL1        0.0173
     10 C         140.7080  139.9063  165.1239 C.ar    1  UNL1        0.0790
     11 N         140.5943  139.6554  163.6494 N.ar    1  UNL1       -0.3060
     12 C         141.5475  139.8891  162.5150 C.3     1  UNL1        0.1291
     13 C         141.1482  139.5314  161.1141 C.3     1  UNL1        0.1183
     14 N         139.7957  138.9402  160.8474 N.am    1  UNL1       -0.2716
     15 C         143.0958  140.9118  165.3181 C.ar    1  UNL1        0.0014
     16 C         143.4064  142.3726  165.1795 C.ar    1  UNL1        0.0000
     17 C         144.6887  142.8089  164.5349 C.ar    1  UNL1        0.0000
     18 C         145.6602  141.7843  164.0288 C.ar    1  UNL1        0.0000
     19 C         145.3495  140.3234  164.1673 C.ar    1  UNL1        0.0000
     20 C         144.0673  139.8871  164.8120 C.ar    1  UNL1        0.0000
     21 C         139.3965  138.5825  159.4464 C.3     1  UNL1        0.0938
     22 C         138.9886  139.6591  158.4848 C.3     1  UNL1        0.0199
     23 C         138.1165  140.8293  158.1385 C.3     1  UNL1        0.0018
     24 C         139.1542  140.3534  157.1656 C.3     1  UNL1        0.0018
@<TRIPOS>BOND
     1     1     2    2
     2     2     3    1
     3     3     4   ar
     4     4     5   ar
     5     5     6   ar
     6     6     7   ar
     7     7     8   ar
     8     8     9   ar
     9     9    15    1
    10    15    16   ar
    11    16    17   ar
    12    17    18   ar
    13    18    19   ar
    14    19    20   ar
    15     9    10   ar
    16    10    11   ar
    17    11    12    1
    18    12    13    1
    19    13    14    1
    20    14    21    1
    21    21    22    1
    22    22    23    1
    23    23    24    1
    24    14     2   am
    25    24    22    1
    26    11     3   ar
    27    10     5   ar
    28    20    15   ar
@<TRIPOS>MOLECULE
*****
 24 28 0 0 0
SMALL
GASTEIGER

@<TRIPOS>ATOM
      1 O         140.0213  139.5526  169.0500 O.2     1  UNL1       -0.2666
      2 C         140.0123  140.5643  167.9427 C.2     1  UNL1        0.2834
      3 C         139.6470  140.1475  166.5488 C.ar    1  UNL1        0.1985
      4 N         139.2537  138.8215  165.9683 N.ar    1  UNL1       -0.2227
      5 C         139.0016  139.0138  164.5022 C.ar    1  UNL1        0.0988
      6 C         138.5865  138.0599  163.4216 C.ar    1  UNL1        0.0206
      7 C         138.4088  138.5508  162.0154 C.ar    1  UNL1        0.0016
      8 C         138.6463  139.9957  161.6898 C.ar    1  UNL1        0.0015
      9 C         139.0614  140.9496  162.7704 C.ar    1  UNL1        0.0173
     10 C         139.2391  140.4586  164.1766 C.ar    1  UNL1        0.0790
     11 N         139.6380  141.1593  165.4415 N.ar    1  UNL1       -0.3060
     12 C         139.9941  142.5879  165.7280 C.3     1  UNL1        0.1291
     13 C         140.3593  143.0048  167.1219 C.3     1  UNL1        0.1183
     14 N         140.3684  141.9930  168.2292 N.am    1  UNL1       -0.2716
     15 C         139.2989  142.3944  162.4448 C.ar    1  UNL1        0.0014
     16 C         140.5725  142.8120  161.7714 C.ar    1  UNL1        0.0000
     17 C         140.8100  144.2568  161.4458 C.ar    1  UNL1        0.0000
     18 C         139.7738  145.2841  161.7937 C.ar    1  UNL1        0.0000
     19 C         138.5002  144.8666  162.4671 C.ar    1  UNL1        0.0000
     20 C         138.2628  143.4217  162.7927 C.ar    1  UNL1        0.0000
     21 C         140.7336  142.4098  169.6231 C.3     1  UNL1        0.0938
     22 C         142.1698  142.6531  169.9812 C.3     1  UNL1        0.0199
     23 C         143.6271  142.3648  169.7738 C.3     1  UNL1        0.0018
     24 C         143.2000  143.3628  170.8088 C.3     1  UNL1        0.0018
@<TRIPOS>BOND
     1     1     2    2
     2     2     3    1
     3     3     4   ar
     4     4     5   ar
     5     5     6   ar
     6     6     7   ar
     7     7     8   ar
     8     8     9   ar
     9     9    15    1
    10    15    16   ar
    11    16    17   ar
    12    17    18   ar
    13    18    19   ar
    14    19    20   ar
    15     9    10   ar
    16    10    11   ar
    17    11    12    1
    18    12    13    1
    19    13    14    1
    20    14    21    1
    21    21    22    1
    22    22    23    1
    23    23    24    1
    24    14     2   am
    25    24    22    1
    26    11     3   ar
    27    10     5   ar
    28    20    15   ar
