@<TRIPOS>MOLECULE
*****
 38 41 0 0 0
SMALL
GASTEIGER

@<TRIPOS>ATOM
      1 O         140.4397  140.2265  159.3241 O.2     1  UNL1       -0.2733
      2 C         141.5355  139.2034  159.3720 C.2     1  UNL1        0.2425
      3 N         141.6427  138.2735  160.5441 N.am    1  UNL1       -0.3032
      4 H         142.3620  137.6020  160.5756 H       1  UNL1        0.1495
      5 C         140.6541  138.3668  161.6684 C.3     1  UNL1        0.0889
      6 C         139.1983  138.0132  161.5939 C.3     1  UNL1        0.0383
      7 C         138.5921  138.2580  162.9440 C.3     1  UNL1        0.0738
      8 N         139.6734  138.7628  163.8529 N.3     1  UNL1       -0.2725
      9 C         140.9477  138.8301  163.0645 C.3     1  UNL1        0.0919
     10 C         139.5091  139.1351  165.2967 C.3     1  UNL1        0.0577
     11 C         138.3261  138.6334  166.0706 C.3     1  UNL1        0.0187
     12 C         138.1618  139.0057  167.5143 C.3     1  UNL1        0.0326
     13 C         139.1805  139.8795  168.1842 C.3     1  UNL1        0.1086
     14 O         138.2376  139.6542  169.3288 O.3     1  UNL1       -0.3826
     15 C         140.3635  140.3811  167.4103 C.3     1  UNL1        0.0326
     16 C         140.5278  140.0089  165.9665 C.3     1  UNL1        0.0187
     17 H         137.5051  139.0889  169.0377 H       1  UNL1        0.2107
     18 C         139.8717  140.6751  169.2516 C.ar    1  UNL1        0.0243
     19 C         140.3844  142.0516  168.9476 C.ar    1  UNL1        0.0221
     20 C         141.0756  142.8472  170.0150 C.ar    1  UNL1        0.1219
     21 N         141.2541  142.2662  171.3864 N.ar    1  UNL1       -0.1464
     22 N         140.7414  140.8897  171.6903 N.ar    1  UNL1       -0.1466
     23 C         140.0502  140.0942  170.6229 C.ar    1  UNL1        0.1201
     24 C         142.5242  139.1100  158.2479 C.3     1  UNL1        0.1759
     25 N         142.9722  137.7668  157.7526 N.am    1  UNL1       -0.2931
     26 C         142.0491  136.9288  156.9187 C.2     1  UNL1        0.2462
     27 O         140.6780  137.4338  156.5800 O.2     1  UNL1       -0.2701
     28 H         143.8722  137.4354  157.9750 H       1  UNL1        0.1502
     29 C         142.4972  135.5856  156.4235 C.ar    1  UNL1        0.0533
     30 C         141.9549  135.0422  155.1349 C.ar    1  UNL1        0.0045
     31 C         142.4030  133.6991  154.6398 C.ar    1  UNL1        0.0001
     32 C         143.3934  132.8993  155.4333 C.ar    1  UNL1        0.0039
     33 C         143.9357  133.4428  156.7219 C.ar    1  UNL1        0.0716
     34 C         143.4876  134.7859  157.2170 C.ar    1  UNL1        0.0084
     35 C         144.9261  132.6430  157.5154 C.3     1  UNL1        0.4186
     36 F         145.9164  131.8433  158.3088 F       1  UNL1       -0.1659
     37 F         145.2227  131.8090  156.3044 F       1  UNL1       -0.1659
     38 F         144.6294  133.4771  158.7263 F       1  UNL1       -0.1659
@<TRIPOS>BOND
     1     1     2    2
     2     2    24    1
     3    24    25    1
     4    25    26   am
     5    26    27    2
     6    26    29    1
     7    29    30   ar
     8    30    31   ar
     9    31    32   ar
    10    32    33   ar
    11    33    35    1
    12    35    36    1
    13    35    37    1
    14    35    38    1
    15    33    34   ar
    16     2     3   am
    17     5     3    1
    18     5     6    1
    19     6     7    1
    20     7     8    1
    21    10     8    1
    22    10    11    1
    23    11    12    1
    24    12    13    1
    25    13    14    1
    26    13    18    1
    27    18    19   ar
    28    19    20   ar
    29    20    21   ar
    30    21    22   ar
    31    22    23   ar
    32    13    15    1
    33    15    16    1
    34     8     9    1
    35    34    29   ar
    36     9     5    1
    37    16    10    1
    38    23    18   ar
    39    25    28    1
    40     3     4    1
    41    14    17    1
@<TRIPOS>MOLECULE
*****
 38 41 0 0 0
SMALL
GASTEIGER

@<TRIPOS>ATOM
      1 O         141.5356  139.7596  159.2934 O.2     1  UNL1       -0.2733
      2 C         142.8399  139.1193  158.9205 C.2     1  UNL1        0.2425
      3 N         144.0080  139.1955  159.8584 N.am    1  UNL1       -0.3032
      4 H         144.8640  138.7753  159.6136 H       1  UNL1        0.1495
      5 C         143.8719  139.9119  161.1693 C.3     1  UNL1        0.0889
      6 C         143.9926  141.3918  161.3819 C.3     1  UNL1        0.0383
      7 C         143.7865  141.6687  162.8417 C.3     1  UNL1        0.0738
      8 N         143.5384  140.3598  163.5312 N.3     1  UNL1       -0.2725
      9 C         143.5912  139.2741  162.4976 C.3     1  UNL1        0.0919
     10 C         143.2825  140.1701  164.9970 C.3     1  UNL1        0.0577
     11 C         143.5347  138.8366  165.6359 C.3     1  UNL1        0.0187
     12 C         143.2788  138.6468  167.1016 C.3     1  UNL1        0.0326
     13 C         142.7707  139.7905  167.9285 C.3     1  UNL1        0.1086
     14 O         142.8568  138.7258  168.9816 O.3     1  UNL1       -0.3826
     15 C         142.5184  141.1240  167.2896 C.3     1  UNL1        0.0326
     16 C         142.7744  141.3138  165.8239 C.3     1  UNL1        0.0187
     17 H         143.1807  137.9027  168.5835 H       1  UNL1        0.2107
     18 C         142.2924  140.5645  169.1211 C.ar    1  UNL1        0.0243
     19 C         142.9372  141.8719  169.4746 C.ar    1  UNL1        0.0221
     20 C         142.4590  142.6458  170.6672 C.ar    1  UNL1        0.1219
     21 N         141.3359  142.1123  171.5064 N.ar    1  UNL1       -0.1464
     22 N         140.6911  140.8048  171.1529 N.ar    1  UNL1       -0.1466
     23 C         141.1694  140.0310  169.9603 C.ar    1  UNL1        0.1201
     24 C         142.9760  138.4030  157.6097 C.3     1  UNL1        0.1759
     25 N         142.6898  136.9329  157.5252 N.am    1  UNL1       -0.2931
     26 C         143.4353  136.0790  156.5429 C.2     1  UNL1        0.2462
     27 O         144.4671  136.6950  155.6451 O.2     1  UNL1       -0.2701
     28 H         142.0126  136.5285  158.1144 H       1  UNL1        0.1502
     29 C         143.1491  134.6089  156.4583 C.ar    1  UNL1        0.0533
     30 C         141.9893  134.1162  155.6447 C.ar    1  UNL1        0.0045
     31 C         141.7031  132.6462  155.5602 C.ar    1  UNL1        0.0001
     32 C         142.5769  131.6689  156.2892 C.ar    1  UNL1        0.0039
     33 C         143.7367  132.1616  157.1028 C.ar    1  UNL1        0.0716
     34 C         144.0228  133.6316  157.1873 C.ar    1  UNL1        0.0084
     35 C         144.6104  131.1843  157.8318 C.3     1  UNL1        0.4186
     36 F         145.4841  130.2070  158.5609 F       1  UNL1       -0.1659
     37 F         145.5521  132.2949  158.1921 F       1  UNL1       -0.1659
     38 F         143.6687  130.0737  157.4716 F       1  UNL1       -0.1659
@<TRIPOS>BOND
     1     1     2    2
     2     2    24    1
     3    24    25    1
     4    25    26   am
     5    26    27    2
     6    26    29    1
     7    29    30   ar
     8    30    31   ar
     9    31    32   ar
    10    32    33   ar
    11    33    35    1
    12    35    36    1
    13    35    37    1
    14    35    38    1
    15    33    34   ar
    16     2     3   am
    17     5     3    1
    18     5     6    1
    19     6     7    1
    20     7     8    1
    21    10     8    1
    22    10    11    1
    23    11    12    1
    24    12    13    1
    25    13    14    1
    26    13    18    1
    27    18    19   ar
    28    19    20   ar
    29    20    21   ar
    30    21    22   ar
    31    22    23   ar
    32    13    15    1
    33    15    16    1
    34     8     9    1
    35    34    29   ar
    36     9     5    1
    37    16    10    1
    38    23    18   ar
    39    25    28    1
    40     3     4    1
    41    14    17    1
@<TRIPOS>MOLECULE
*****
 38 41 0 0 0
SMALL
GASTEIGER

@<TRIPOS>ATOM
      1 O         138.4097  139.6014  159.5046 O.2     1  UNL1       -0.2733
      2 C         139.5928  138.7627  159.1215 C.2     1  UNL1        0.2425
      3 N         140.4091  138.0876  160.1835 N.am    1  UNL1       -0.3032
      4 H         141.1856  137.5371  159.9319 H       1  UNL1        0.1495
      5 C         140.0422  138.2511  161.6287 C.3     1  UNL1        0.0889
      6 C         138.7179  137.9119  162.2460 C.3     1  UNL1        0.0383
      7 C         138.7925  138.2337  163.7092 C.3     1  UNL1        0.0738
      8 N         140.1629  138.7718  163.9962 N.3     1  UNL1       -0.2725
      9 C         140.9353  138.7825  162.7104 C.3     1  UNL1        0.0919
     10 C         140.6717  139.2203  165.3341 C.3     1  UNL1        0.0577
     11 C         142.0815  138.9111  165.7425 C.3     1  UNL1        0.0187
     12 C         142.5902  139.3597  167.0804 C.3     1  UNL1        0.0326
     13 C         141.6891  140.1174  168.0099 C.3     1  UNL1        0.1086
     14 O         142.9365  140.0651  168.8414 O.3     1  UNL1       -0.3826
     15 C         140.2793  140.4267  167.6014 C.3     1  UNL1        0.0326
     16 C         139.7706  139.9781  166.2636 C.3     1  UNL1        0.0187
     17 H         143.6291  139.5903  168.3558 H       1  UNL1        0.2107
     18 C         141.2213  140.8570  169.2281 C.ar    1  UNL1        0.0243
     19 C         140.7629  142.2804  169.1114 C.ar    1  UNL1        0.0221
     20 C         140.2950  143.0200  170.3297 C.ar    1  UNL1        0.1219
     21 N         140.2856  142.3361  171.6647 N.ar    1  UNL1       -0.1464
     22 N         140.7441  140.9126  171.7814 N.ar    1  UNL1       -0.1466
     23 C         141.2119  140.1731  170.5631 C.ar    1  UNL1        0.1201
     24 C         139.9597  138.5992  157.6763 C.3     1  UNL1        0.1759
     25 N         140.3980  137.2605  157.1606 N.am    1  UNL1       -0.2931
     26 C         141.8419  137.0186  156.8339 C.2     1  UNL1        0.2462
     27 O         142.8475  138.1154  157.0229 O.2     1  UNL1       -0.2701
     28 H         139.7380  136.5406  157.0365 H       1  UNL1        0.1502
     29 C         142.2801  135.6799  156.3181 C.ar    1  UNL1        0.0533
     30 C         141.6988  135.1396  155.0454 C.ar    1  UNL1        0.0045
     31 C         142.1371  133.8009  154.5297 C.ar    1  UNL1        0.0001
     32 C         143.1567  133.0027  155.2868 C.ar    1  UNL1        0.0039
     33 C         143.7380  133.5431  156.5596 C.ar    1  UNL1        0.0716
     34 C         143.2997  134.8817  157.0753 C.ar    1  UNL1        0.0084
     35 C         144.7576  132.7448  157.3167 C.3     1  UNL1        0.4186
     36 F         145.7772  131.9466  158.0739 F       1  UNL1       -0.1659
     37 F         145.0566  131.9525  156.0787 F       1  UNL1       -0.1659
     38 F         144.4586  133.5372  158.5548 F       1  UNL1       -0.1659
@<TRIPOS>BOND
     1     1     2    2
     2     2    24    1
     3    24    25    1
     4    25    26   am
     5    26    27    2
     6    26    29    1
     7    29    30   ar
     8    30    31   ar
     9    31    32   ar
    10    32    33   ar
    11    33    35    1
    12    35    36    1
    13    35    37    1
    14    35    38    1
    15    33    34   ar
    16     2     3   am
    17     5     3    1
    18     5     6    1
    19     6     7    1
    20     7     8    1
    21    10     8    1
    22    10    11    1
    23    11    12    1
    24    12    13    1
    25    13    14    1
    26    13    18    1
    27    18    19   ar
    28    19    20   ar
    29    20    21   ar
    30    21    22   ar
    31    22    23   ar
    32    13    15    1
    33    15    16    1
    34     8     9    1
    35    34    29   ar
    36     9     5    1
    37    16    10    1
    38    23    18   ar
    39    25    28    1
    40     3     4    1
    41    14    17    1
@<TRIPOS>MOLECULE
*****
 38 41 0 0 0
SMALL
GASTEIGER

@<TRIPOS>ATOM
      1 O         141.3943  140.5591  159.4768 O.2     1  UNL1       -0.2733
      2 C         141.4027  139.1125  159.0805 C.2     1  UNL1        0.2425
      3 N         141.6952  138.0560  160.1043 N.am    1  UNL1       -0.3032
      4 H         141.7007  137.1065  159.8442 H       1  UNL1        0.1495
      5 C         141.9795  138.4462  161.5246 C.3     1  UNL1        0.0889
      6 C         143.3355  138.6911  162.1171 C.3     1  UNL1        0.0383
      7 C         143.1517  139.0562  163.5603 C.3     1  UNL1        0.0738
      8 N         141.6819  139.0370  163.8598 N.3     1  UNL1       -0.2725
      9 C         140.9575  138.6600  162.6016 C.3     1  UNL1        0.0919
     10 C         141.0480  139.3413  165.1847 C.3     1  UNL1        0.0577
     11 C         139.6982  138.7779  165.5174 C.3     1  UNL1        0.0187
     12 C         139.0643  139.0822  166.8423 C.3     1  UNL1        0.0326
     13 C         139.7801  139.9500  167.8346 C.3     1  UNL1        0.1086
     14 O         138.5279  139.6520  168.6047 O.3     1  UNL1       -0.3826
     15 C         141.1299  140.5135  167.5019 C.3     1  UNL1        0.0326
     16 C         141.7638  140.2091  166.1769 C.3     1  UNL1        0.0187
     17 H         137.9495  139.0825  168.0737 H       1  UNL1        0.2107
     18 C         140.0610  140.7143  169.0943 C.ar    1  UNL1        0.0243
     19 C         140.1820  142.2088  169.0536 C.ar    1  UNL1        0.0221
     20 C         140.4629  142.9731  170.3134 C.ar    1  UNL1        0.1219
     21 N         140.6228  142.2428  171.6139 N.ar    1  UNL1       -0.1464
     22 N         140.5018  140.7482  171.6545 N.ar    1  UNL1       -0.1466
     23 C         140.2209  139.9840  170.3947 C.ar    1  UNL1        0.1201
     24 C         141.1185  138.7223  157.6603 C.3     1  UNL1        0.1759
     25 N         141.3732  137.3164  157.2034 N.am    1  UNL1       -0.2931
     26 C         142.7099  136.9433  156.6343 C.2     1  UNL1        0.2462
     27 O         143.7919  137.9760  156.5221 O.2     1  UNL1       -0.2701
     28 H         140.6630  136.6385  157.2771 H       1  UNL1        0.1502
     29 C         142.9646  135.5374  156.1775 C.ar    1  UNL1        0.0533
     30 C         142.4249  135.0678  154.8591 C.ar    1  UNL1        0.0045
     31 C         142.6796  133.6620  154.4023 C.ar    1  UNL1        0.0001
     32 C         143.4740  132.7257  155.2638 C.ar    1  UNL1        0.0039
     33 C         144.0137  133.1953  156.5822 C.ar    1  UNL1        0.0716
     34 C         143.7590  134.6011  157.0390 C.ar    1  UNL1        0.0084
     35 C         144.8081  132.2590  157.4438 C.3     1  UNL1        0.4186
     36 F         145.6025  131.3228  158.3054 F       1  UNL1       -0.1659
     37 F         144.7989  131.2391  156.3440 F       1  UNL1       -0.1659
     38 F         144.8174  133.2790  158.5437 F       1  UNL1       -0.1659
@<TRIPOS>BOND
     1     1     2    2
     2     2    24    1
     3    24    25    1
     4    25    26   am
     5    26    27    2
     6    26    29    1
     7    29    30   ar
     8    30    31   ar
     9    31    32   ar
    10    32    33   ar
    11    33    35    1
    12    35    36    1
    13    35    37    1
    14    35    38    1
    15    33    34   ar
    16     2     3   am
    17     5     3    1
    18     5     6    1
    19     6     7    1
    20     7     8    1
    21    10     8    1
    22    10    11    1
    23    11    12    1
    24    12    13    1
    25    13    14    1
    26    13    18    1
    27    18    19   ar
    28    19    20   ar
    29    20    21   ar
    30    21    22   ar
    31    22    23   ar
    32    13    15    1
    33    15    16    1
    34     8     9    1
    35    34    29   ar
    36     9     5    1
    37    16    10    1
    38    23    18   ar
    39    25    28    1
    40     3     4    1
    41    14    17    1
@<TRIPOS>MOLECULE
*****
 38 41 0 0 0
SMALL
GASTEIGER

@<TRIPOS>ATOM
      1 O         144.0712  138.8449  160.0476 O.2     1  UNL1       -0.2733
      2 C         143.1169  139.6239  159.1918 C.2     1  UNL1        0.2425
      3 N         142.2994  140.7281  159.7938 N.am    1  UNL1       -0.3032
      4 H         141.6730  141.2393  159.2321 H       1  UNL1        0.1495
      5 C         142.4362  141.0533  161.2518 C.3     1  UNL1        0.0889
      6 C         143.5118  141.8965  161.8699 C.3     1  UNL1        0.0383
      7 C         143.2618  141.9568  163.3477 C.3     1  UNL1        0.0738
      8 N         142.0316  141.1508  163.6429 N.3     1  UNL1       -0.2725
      9 C         141.5214  140.5924  162.3476 C.3     1  UNL1        0.0919
     10 C         141.4193  140.9401  164.9959 C.3     1  UNL1        0.0577
     11 C         140.4096  139.8499  165.2006 C.3     1  UNL1        0.0187
     12 C         139.7973  139.6392  166.5536 C.3     1  UNL1        0.0326
     13 C         140.1945  140.5189  167.7019 C.3     1  UNL1        0.1086
     14 O         139.2033  139.6264  168.3882 O.3     1  UNL1       -0.3826
     15 C         141.2042  141.6091  167.4971 C.3     1  UNL1        0.0326
     16 C         141.8165  141.8198  166.1442 C.3     1  UNL1        0.0187
     17 H         138.8502  138.9854  167.7515 H       1  UNL1        0.2107
     18 C         140.2475  141.0886  169.0885 C.ar    1  UNL1        0.0243
     19 C         140.0665  142.5623  169.3013 C.ar    1  UNL1        0.0221
     20 C         140.1195  143.1319  170.6879 C.ar    1  UNL1        0.1219
     21 N         140.3535  142.2278  171.8618 N.ar    1  UNL1       -0.1464
     22 N         140.5345  140.7540  171.6489 N.ar    1  UNL1       -0.1466
     23 C         140.4815  140.1844  170.2623 C.ar    1  UNL1        0.1201
     24 C         142.9800  139.2987  157.7339 C.3     1  UNL1        0.1759
     25 N         143.2833  137.9143  157.2425 N.am    1  UNL1       -0.2931
     26 C         142.1629  136.9766  156.9031 C.2     1  UNL1        0.2462
     27 O         140.7390  137.4233  157.0551 O.2     1  UNL1       -0.2701
     28 H         144.2179  137.6211  157.1428 H       1  UNL1        0.1502
     29 C         142.4662  135.5921  156.4118 C.ar    1  UNL1        0.0533
     30 C         141.7564  135.0520  155.2059 C.ar    1  UNL1        0.0045
     31 C         142.0597  133.6676  154.7146 C.ar    1  UNL1        0.0001
     32 C         143.0729  132.8234  155.4292 C.ar    1  UNL1        0.0039
     33 C         143.7828  133.3635  156.6352 C.ar    1  UNL1        0.0716
     34 C         143.4794  134.7479  157.1264 C.ar    1  UNL1        0.0084
     35 C         144.7959  132.5193  157.3498 C.3     1  UNL1        0.4186
     36 F         145.8091  131.6751  158.0644 F       1  UNL1       -0.1659
     37 F         144.6034  133.3390  158.5912 F       1  UNL1       -0.1659
     38 F         144.9885  131.6996  156.1084 F       1  UNL1       -0.1659
@<TRIPOS>BOND
     1     1     2    2
     2     2    24    1
     3    24    25    1
     4    25    26   am
     5    26    27    2
     6    26    29    1
     7    29    30   ar
     8    30    31   ar
     9    31    32   ar
    10    32    33   ar
    11    33    35    1
    12    35    36    1
    13    35    37    1
    14    35    38    1
    15    33    34   ar
    16     2     3   am
    17     5     3    1
    18     5     6    1
    19     6     7    1
    20     7     8    1
    21    10     8    1
    22    10    11    1
    23    11    12    1
    24    12    13    1
    25    13    14    1
    26    13    18    1
    27    18    19   ar
    28    19    20   ar
    29    20    21   ar
    30    21    22   ar
    31    22    23   ar
    32    13    15    1
    33    15    16    1
    34     8     9    1
    35    34    29   ar
    36     9     5    1
    37    16    10    1
    38    23    18   ar
    39    25    28    1
    40     3     4    1
    41    14    17    1
@<TRIPOS>MOLECULE
*****
 38 41 0 0 0
SMALL
GASTEIGER

@<TRIPOS>ATOM
      1 O         139.8107  140.5707  159.1574 O.2     1  UNL1       -0.2733
      2 C         138.3749  140.1880  158.9526 C.2     1  UNL1        0.2425
      3 N         137.6321  139.4576  160.0318 N.am    1  UNL1       -0.3032
      4 H         136.6897  139.2065  159.8974 H       1  UNL1        0.1495
      5 C         138.3251  139.1098  161.3159 C.3     1  UNL1        0.0889
      6 C         139.3495  138.0297  161.5004 C.3     1  UNL1        0.0383
      7 C         139.7729  138.0334  162.9394 C.3     1  UNL1        0.0738
      8 N         139.0102  139.1158  163.6443 N.3     1  UNL1       -0.2725
      9 C         138.1154  139.7810  162.6408 C.3     1  UNL1        0.0919
     10 C         139.1225  139.4706  165.0973 C.3     1  UNL1        0.0577
     11 C         138.2889  138.7467  166.1127 C.3     1  UNL1        0.0187
     12 C         138.4012  139.1015  167.5658 C.3     1  UNL1        0.0326
     13 C         139.3472  140.1802  168.0035 C.3     1  UNL1        0.1086
     14 O         138.7728  139.7830  169.3310 O.3     1  UNL1       -0.3826
     15 C         140.1808  140.9041  166.9881 C.3     1  UNL1        0.0326
     16 C         140.0684  140.5493  165.5350 C.3     1  UNL1        0.0187
     17 H         138.1251  139.0723  169.2035 H       1  UNL1        0.2107
     18 C         140.0936  141.1210  168.9023 C.ar    1  UNL1        0.0243
     19 C         141.4818  141.5600  168.5415 C.ar    1  UNL1        0.0221
     20 C         142.2282  142.5008  169.4403 C.ar    1  UNL1        0.1219
     21 N         141.5865  143.0026  170.6999 N.ar    1  UNL1       -0.1464
     22 N         140.1982  142.5634  171.0606 N.ar    1  UNL1       -0.1466
     23 C         139.4518  141.6227  170.1618 C.ar    1  UNL1        0.1201
     24 C         137.6818  140.5358  157.6686 C.3     1  UNL1        0.1759
     25 N         136.1833  140.5333  157.6006 N.am    1  UNL1       -0.2931
     26 C         135.4930  140.5666  156.2693 C.2     1  UNL1        0.2462
     27 O         136.3010  140.6024  155.0061 O.2     1  UNL1       -0.2701
     28 H         135.6530  140.5098  158.4297 H       1  UNL1        0.1502
     29 C         133.9945  140.5640  156.2013 C.ar    1  UNL1        0.0533
     30 C         133.2860  141.4669  155.2354 C.ar    1  UNL1        0.0045
     31 C         131.7876  141.4643  155.1674 C.ar    1  UNL1        0.0001
     32 C         130.9976  140.5589  156.0652 C.ar    1  UNL1        0.0039
     33 C         131.7061  139.6560  157.0311 C.ar    1  UNL1        0.0716
     34 C         133.2045  139.6586  157.0991 C.ar    1  UNL1        0.0084
     35 C         130.9161  138.7506  157.9290 C.3     1  UNL1        0.4186
     36 F         130.1261  137.8452  158.8268 F       1  UNL1       -0.1659
     37 F         129.6455  139.2205  157.2848 F       1  UNL1       -0.1659
     38 F         132.1866  138.2808  158.5731 F       1  UNL1       -0.1659
@<TRIPOS>BOND
     1     1     2    2
     2     2    24    1
     3    24    25    1
     4    25    26   am
     5    26    27    2
     6    26    29    1
     7    29    30   ar
     8    30    31   ar
     9    31    32   ar
    10    32    33   ar
    11    33    35    1
    12    35    36    1
    13    35    37    1
    14    35    38    1
    15    33    34   ar
    16     2     3   am
    17     5     3    1
    18     5     6    1
    19     6     7    1
    20     7     8    1
    21    10     8    1
    22    10    11    1
    23    11    12    1
    24    12    13    1
    25    13    14    1
    26    13    18    1
    27    18    19   ar
    28    19    20   ar
    29    20    21   ar
    30    21    22   ar
    31    22    23   ar
    32    13    15    1
    33    15    16    1
    34     8     9    1
    35    34    29   ar
    36     9     5    1
    37    16    10    1
    38    23    18   ar
    39    25    28    1
    40     3     4    1
    41    14    17    1
@<TRIPOS>MOLECULE
*****
 38 41 0 0 0
SMALL
GASTEIGER

@<TRIPOS>ATOM
      1 O         142.2453  141.2786  159.0162 O.2     1  UNL1       -0.2733
      2 C         142.3559  139.7853  158.9278 C.2     1  UNL1        0.2425
      3 N         141.9152  138.9311  160.0793 N.am    1  UNL1       -0.3032
      4 H         141.9878  137.9510  160.0213 H       1  UNL1        0.1495
      5 C         141.3639  139.5702  161.3194 C.3     1  UNL1        0.0889
      6 C         139.9387  139.9828  161.5397 C.3     1  UNL1        0.0383
      7 C         139.8350  140.5765  162.9133 C.3     1  UNL1        0.0738
      8 N         141.1962  140.5307  163.5420 N.3     1  UNL1       -0.2725
      9 C         142.1411  139.9088  162.5569 C.3     1  UNL1        0.0919
     10 C         141.5503  141.0208  164.9147 C.3     1  UNL1        0.0577
     11 C         142.8758  141.6798  165.1571 C.3     1  UNL1        0.0187
     12 C         143.2298  142.1699  166.5298 C.3     1  UNL1        0.0326
     13 C         142.2584  142.0010  167.6602 C.3     1  UNL1        0.1086
     14 O         143.3821  142.6837  168.3822 O.3     1  UNL1       -0.3826
     15 C         140.9329  141.3420  167.4179 C.3     1  UNL1        0.0326
     16 C         140.5788  140.8519  166.0451 C.3     1  UNL1        0.0187
     17 H         144.1049  142.8620  167.7604 H       1  UNL1        0.2107
     18 C         141.6772  142.0693  169.0414 C.ar    1  UNL1        0.0243
     19 C         142.0669  141.0498  170.0703 C.ar    1  UNL1        0.0221
     20 C         141.4857  141.1180  171.4514 C.ar    1  UNL1        0.1219
     21 N         140.5148  142.2058  171.8037 N.ar    1  UNL1       -0.1464
     22 N         140.1251  143.2253  170.7746 N.ar    1  UNL1       -0.1466
     23 C         140.7063  143.1570  169.3935 C.ar    1  UNL1        0.1201
     24 C         142.9072  139.1462  157.6878 C.3     1  UNL1        0.1759
     25 N         142.9906  137.6518  157.5878 N.am    1  UNL1       -0.2931
     26 C         142.4198  136.9470  156.3931 C.2     1  UNL1        0.2462
     27 O         141.7655  137.7365  155.2983 O.2     1  UNL1       -0.2701
     28 H         143.4200  137.1336  158.3064 H       1  UNL1        0.1502
     29 C         142.5032  135.4526  156.2931 C.ar    1  UNL1        0.0533
     30 C         141.4869  134.6968  155.4895 C.ar    1  UNL1        0.0045
     31 C         141.5704  133.2025  155.3896 C.ar    1  UNL1        0.0001
     32 C         142.6702  132.4640  156.0933 C.ar    1  UNL1        0.0039
     33 C         143.6865  133.2198  156.8969 C.ar    1  UNL1        0.0716
     34 C         143.6030  134.7141  156.9968 C.ar    1  UNL1        0.0084
     35 C         144.7863  132.4813  157.6005 C.3     1  UNL1        0.4186
     36 F         145.8860  131.7429  158.3042 F       1  UNL1       -0.1659
     37 F         144.7140  133.4571  158.7375 F       1  UNL1       -0.1659
     38 F         144.8585  131.5056  156.4635 F       1  UNL1       -0.1659
@<TRIPOS>BOND
     1     1     2    2
     2     2    24    1
     3    24    25    1
     4    25    26   am
     5    26    27    2
     6    26    29    1
     7    29    30   ar
     8    30    31   ar
     9    31    32   ar
    10    32    33   ar
    11    33    35    1
    12    35    36    1
    13    35    37    1
    14    35    38    1
    15    33    34   ar
    16     2     3   am
    17     5     3    1
    18     5     6    1
    19     6     7    1
    20     7     8    1
    21    10     8    1
    22    10    11    1
    23    11    12    1
    24    12    13    1
    25    13    14    1
    26    13    18    1
    27    18    19   ar
    28    19    20   ar
    29    20    21   ar
    30    21    22   ar
    31    22    23   ar
    32    13    15    1
    33    15    16    1
    34     8     9    1
    35    34    29   ar
    36     9     5    1
    37    16    10    1
    38    23    18   ar
    39    25    28    1
    40     3     4    1
    41    14    17    1
@<TRIPOS>MOLECULE
*****
 38 41 0 0 0
SMALL
GASTEIGER

@<TRIPOS>ATOM
      1 O         138.4316  138.7793  159.8927 O.2     1  UNL1       -0.2733
      2 C         139.6660  139.4120  159.3219 C.2     1  UNL1        0.2425
      3 N         140.9031  139.5338  160.1613 N.am    1  UNL1       -0.3032
      4 H         141.7133  139.9490  159.7866 H       1  UNL1        0.1495
      5 C         140.9058  139.0230  161.5717 C.3     1  UNL1        0.0889
      6 C         141.3778  137.6713  162.0190 C.3     1  UNL1        0.0383
      7 C         141.2006  137.5871  163.5061 C.3     1  UNL1        0.0738
      8 N         140.6191  138.8869  163.9780 N.3     1  UNL1       -0.2725
      9 C         140.4369  139.7743  162.7824 C.3     1  UNL1        0.0919
     10 C         140.2795  139.2376  165.3963 C.3     1  UNL1        0.0577
     11 C         138.9380  138.8717  165.9587 C.3     1  UNL1        0.0187
     12 C         138.5984  139.2224  167.3770 C.3     1  UNL1        0.0326
     13 C         139.6003  139.9391  168.2329 C.3     1  UNL1        0.1086
     14 O         138.4704  139.8060  169.2105 O.3     1  UNL1       -0.3826
     15 C         140.9419  140.3050  167.6705 C.3     1  UNL1        0.0326
     16 C         141.2815  139.9543  166.2522 C.3     1  UNL1        0.0187
     17 H         137.7281  139.3479  168.7862 H       1  UNL1        0.2107
     18 C         140.2098  140.6095  169.4283 C.ar    1  UNL1        0.0243
     19 C         141.4997  140.0985  169.9984 C.ar    1  UNL1        0.0221
     20 C         142.1092  140.7689  171.1938 C.ar    1  UNL1        0.1219
     21 N         141.4288  141.9505  171.8192 N.ar    1  UNL1       -0.1464
     22 N         140.1388  142.4615  171.2490 N.ar    1  UNL1       -0.1466
     23 C         139.5294  141.7910  170.0536 C.ar    1  UNL1        0.1201
     24 C         139.6634  139.9228  157.9116 C.3     1  UNL1        0.1759
     25 N         138.3954  139.9065  157.1103 N.am    1  UNL1       -0.2931
     26 C         137.9261  141.1547  156.4235 C.2     1  UNL1        0.2462
     27 O         138.7248  142.4192  156.5378 O.2     1  UNL1       -0.2701
     28 H         137.8711  139.0765  157.0353 H       1  UNL1        0.1502
     29 C         136.6581  141.1384  155.6222 C.ar    1  UNL1        0.0533
     30 C         136.6887  141.4825  154.1626 C.ar    1  UNL1        0.0045
     31 C         135.4208  141.4662  153.3614 C.ar    1  UNL1        0.0001
     32 C         134.1221  141.1058  154.0199 C.ar    1  UNL1        0.0039
     33 C         134.0914  140.7617  155.4796 C.ar    1  UNL1        0.0716
     34 C         135.3594  140.7780  156.2807 C.ar    1  UNL1        0.0084
     35 C         132.7928  140.4013  156.1380 C.3     1  UNL1        0.4186
     36 F         131.4941  140.0409  156.7965 F       1  UNL1       -0.1659
     37 F         132.2819  141.7897  155.8903 F       1  UNL1       -0.1659
     38 F         133.3037  139.0129  156.3858 F       1  UNL1       -0.1659
@<TRIPOS>BOND
     1     1     2    2
     2     2    24    1
     3    24    25    1
     4    25    26   am
     5    26    27    2
     6    26    29    1
     7    29    30   ar
     8    30    31   ar
     9    31    32   ar
    10    32    33   ar
    11    33    35    1
    12    35    36    1
    13    35    37    1
    14    35    38    1
    15    33    34   ar
    16     2     3   am
    17     5     3    1
    18     5     6    1
    19     6     7    1
    20     7     8    1
    21    10     8    1
    22    10    11    1
    23    11    12    1
    24    12    13    1
    25    13    14    1
    26    13    18    1
    27    18    19   ar
    28    19    20   ar
    29    20    21   ar
    30    21    22   ar
    31    22    23   ar
    32    13    15    1
    33    15    16    1
    34     8     9    1
    35    34    29   ar
    36     9     5    1
    37    16    10    1
    38    23    18   ar
    39    25    28    1
    40     3     4    1
    41    14    17    1
@<TRIPOS>MOLECULE
*****
 38 41 0 0 0
SMALL
GASTEIGER

@<TRIPOS>ATOM
      1 O         142.8104  140.5016  158.8754 O.2     1  UNL1       -0.2733
      2 C         142.7711  139.0024  158.8482 C.2     1  UNL1        0.2425
      3 N         142.7537  138.2291  160.1334 N.am    1  UNL1       -0.3032
      4 H         142.7278  137.2451  160.1155 H       1  UNL1        0.1495
      5 C         142.7756  138.9551  161.4459 C.3     1  UNL1        0.0889
      6 C         143.7696  139.9997  161.8592 C.3     1  UNL1        0.0383
      7 C         143.4157  140.4541  163.2442 C.3     1  UNL1        0.0738
      8 N         142.2029  139.6902  163.6869 N.3     1  UNL1       -0.2725
      9 C         141.8074  138.7639  162.5755 C.3     1  UNL1        0.0919
     10 C         141.5079  139.8286  165.0089 C.3     1  UNL1        0.0577
     11 C         140.2340  139.0803  165.2684 C.3     1  UNL1        0.0187
     12 C         139.5389  139.2187  166.5904 C.3     1  UNL1        0.0326
     13 C         140.1177  140.1052  167.6529 C.3     1  UNL1        0.1086
     14 O         138.8977  139.6045  168.3676 O.3     1  UNL1       -0.3826
     15 C         141.3916  140.8535  167.3935 C.3     1  UNL1        0.0326
     16 C         142.0867  140.7151  166.0715 C.3     1  UNL1        0.0187
     17 H         138.4075  139.0015  167.7870 H       1  UNL1        0.2107
     18 C         140.2728  140.8179  168.9637 C.ar    1  UNL1        0.0243
     19 C         140.3263  142.3164  169.0009 C.ar    1  UNL1        0.0221
     20 C         140.4813  143.0291  170.3117 C.ar    1  UNL1        0.1219
     21 N         140.5830  142.2431  171.5853 N.ar    1  UNL1       -0.1464
     22 N         140.5295  140.7445  171.5480 N.ar    1  UNL1       -0.1466
     23 C         140.3744  140.0319  170.2372 C.ar    1  UNL1        0.1201
     24 C         142.7491  138.2764  157.5358 C.3     1  UNL1        0.1759
     25 N         143.0587  136.8096  157.4848 N.am    1  UNL1       -0.2931
     26 C         142.2909  135.9127  156.5596 C.2     1  UNL1        0.2462
     27 O         141.2135  136.4826  155.6853 O.2     1  UNL1       -0.2701
     28 H         143.7659  136.4355  158.0586 H       1  UNL1        0.1502
     29 C         142.6005  134.4459  156.5086 C.ar    1  UNL1        0.0533
     30 C         143.7379  133.8910  157.3138 C.ar    1  UNL1        0.0045
     31 C         144.0475  132.4242  157.2627 C.ar    1  UNL1        0.0001
     32 C         143.2197  131.5123  156.4065 C.ar    1  UNL1        0.0039
     33 C         142.0823  132.0672  155.6013 C.ar    1  UNL1        0.0716
     34 C         141.7727  133.5340  155.6523 C.ar    1  UNL1        0.0084
     35 C         141.2544  131.1553  154.7451 C.3     1  UNL1        0.4186
     36 F         140.4266  130.2434  153.8889 F       1  UNL1       -0.1659
     37 F         141.6810  129.9842  155.5798 F       1  UNL1       -0.1659
     38 F         140.8278  132.3263  153.9104 F       1  UNL1       -0.1659
@<TRIPOS>BOND
     1     1     2    2
     2     2    24    1
     3    24    25    1
     4    25    26   am
     5    26    27    2
     6    26    29    1
     7    29    30   ar
     8    30    31   ar
     9    31    32   ar
    10    32    33   ar
    11    33    35    1
    12    35    36    1
    13    35    37    1
    14    35    38    1
    15    33    34   ar
    16     2     3   am
    17     5     3    1
    18     5     6    1
    19     6     7    1
    20     7     8    1
    21    10     8    1
    22    10    11    1
    23    11    12    1
    24    12    13    1
    25    13    14    1
    26    13    18    1
    27    18    19   ar
    28    19    20   ar
    29    20    21   ar
    30    21    22   ar
    31    22    23   ar
    32    13    15    1
    33    15    16    1
    34     8     9    1
    35    34    29   ar
    36     9     5    1
    37    16    10    1
    38    23    18   ar
    39    25    28    1
    40     3     4    1
    41    14    17    1
