@<TRIPOS>MOLECULE
*****
 33 36 0 0 0
SMALL
GASTEIGER

@<TRIPOS>ATOM
      1 C         140.8292  144.9567  159.5011 C.ar    1  UNL1        0.0644
      2 C         140.8868  145.7355  158.2204 C.ar    1  UNL1        0.0155
      3 C         140.1139  145.2678  157.0229 C.ar    1  UNL1       -0.0032
      4 C         139.2835  144.0213  157.1061 C.ar    1  UNL1       -0.0246
      5 C         139.2261  143.2426  158.3868 C.ar    1  UNL1       -0.0234
      6 C         139.9989  143.7102  159.5843 C.ar    1  UNL1        0.0113
      7 C         138.4666  141.9833  158.6823 C.3     1  UNL1        0.0434
      8 C         137.5769  141.1917  157.7701 C.3     1  UNL1        0.0771
      9 N         137.2272  141.4640  156.3372 N.3     1  UNL1       -0.2671
     10 C         137.6806  142.5951  155.4624 C.3     1  UNL1        0.0771
     11 C         138.5958  143.7332  155.8046 C.3     1  UNL1        0.0434
     12 N         141.6021  145.4244  160.6986 N.pl3   1  UNL1       -0.2150
     13 H         142.2773  146.1343  160.6022 H       1  UNL1        0.1737
     14 S         141.3462  144.8103  162.0430 S.O2    1  UNL1        0.0736
     15 O         142.5078  143.8832  161.8407 O.2     1  UNL1       -0.1499
     16 O         140.1845  145.7375  162.2453 O.2     1  UNL1       -0.1499
     17 C         140.5784  142.9682  166.0763 C.ar    1  UNL1       -0.0221
     18 C         139.5623  143.8874  165.4659 C.ar    1  UNL1       -0.0029
     19 C         139.8181  144.5015  164.1215 C.ar    1  UNL1        0.0199
     20 C         141.0902  144.1963  163.3874 C.ar    1  UNL1        0.1251
     21 C         142.1064  143.2771  163.9979 C.ar    1  UNL1        0.0199
     22 C         141.8504  142.6630  165.3423 C.ar    1  UNL1       -0.0029
     23 C         140.3225  142.3541  167.4207 C.3     1  UNL1        0.0264
     24 C         140.6058  143.1366  168.6687 C.3     1  UNL1        0.0047
     25 C         143.0848  142.4134  168.9550 C.3     1  UNL1        0.0000
     26 C         141.7509  142.7457  169.5553 C.3     1  UNL1        0.0003
     27 C         136.3016  140.4744  155.6938 C.3     1  UNL1        0.1180
     28 C         134.8437  140.4714  156.0470 C.ar    1  UNL1        0.0693
     29 C         133.7530  141.1754  155.2955 C.ar    1  UNL1        0.0379
     30 C         132.4559  140.9029  155.9978 C.ar    1  UNL1        0.1211
     31 N         132.7449  140.0306  157.1833 N.ar    1  UNL1       -0.1713
     32 N         134.2207  139.7638  157.2138 N.ar    1  UNL1       -0.2784
     33 H         134.6968  139.2199  157.8821 H       1  UNL1        0.1886
@<TRIPOS>BOND
     1    25    26    1
     2    26    24    1
     3    24    23    1
     4    23    17    1
     5    17    18   ar
     6    18    19   ar
     7    19    20   ar
     8    20    14    1
     9    14    15    2
    10    14    16    2
    11    14    12    1
    12    12     1    1
    13     1     2   ar
    14     2     3   ar
    15     3     4   ar
    16     4     5   ar
    17     5     6   ar
    18     5     7    1
    19     7     8    1
    20     8     9    1
    21     9    27    1
    22    27    28    1
    23    28    29   ar
    24    29    30   ar
    25    30    31   ar
    26    31    32   ar
    27     9    10    1
    28    10    11    1
    29    20    21   ar
    30    21    22   ar
    31    22    17   ar
    32     6     1   ar
    33    32    28   ar
    34    11     4    1
    35    12    13    1
    36    32    33    1
@<TRIPOS>MOLECULE
*****
 33 36 0 0 0
SMALL
GASTEIGER

@<TRIPOS>ATOM
      1 C         139.0388  141.7223  161.0309 C.ar    1  UNL1        0.0644
      2 C         139.8992  142.7505  161.7038 C.ar    1  UNL1        0.0155
      3 C         140.3765  143.9476  160.9362 C.ar    1  UNL1       -0.0032
      4 C         139.9935  144.1165  159.4958 C.ar    1  UNL1       -0.0246
      5 C         139.1332  143.0884  158.8230 C.ar    1  UNL1       -0.0234
      6 C         138.6558  141.8913  159.5905 C.ar    1  UNL1        0.0113
      7 C         138.6393  143.0640  157.4068 C.3     1  UNL1        0.0434
      8 C         138.8839  144.0617  156.3137 C.3     1  UNL1        0.0771
      9 N         139.6826  145.3301  156.3669 N.3     1  UNL1       -0.2671
     10 C         140.4341  145.9143  157.5262 C.3     1  UNL1        0.0771
     11 C         140.5725  145.3742  158.9187 C.3     1  UNL1        0.0434
     12 N         138.5615  140.5253  161.7985 N.pl3   1  UNL1       -0.2150
     13 H         138.1079  139.7883  161.3291 H       1  UNL1        0.1737
     14 S         138.7755  140.4511  163.2813 S.O2    1  UNL1        0.0736
     15 O         140.0846  139.7539  163.0576 O.2     1  UNL1       -0.1499
     16 O         137.4663  141.1483  163.5051 O.2     1  UNL1       -0.1499
     17 C         139.4172  140.2285  167.7298 C.ar    1  UNL1       -0.0221
     18 C         138.4665  139.2807  167.0608 C.ar    1  UNL1       -0.0029
     19 C         138.2525  139.3548  165.5780 C.ar    1  UNL1        0.0199
     20 C         138.9894  140.3769  164.7641 C.ar    1  UNL1        0.1251
     21 C         139.9402  141.3248  165.4331 C.ar    1  UNL1        0.0199
     22 C         140.1541  141.2506  166.9159 C.ar    1  UNL1       -0.0029
     23 C         139.6312  140.1544  169.2126 C.3     1  UNL1        0.0264
     24 C         140.4674  141.1913  169.9023 C.3     1  UNL1        0.0047
     25 C         140.4405  143.7875  169.8071 C.3     1  UNL1        0.0000
     26 C         139.8561  142.4998  170.3073 C.3     1  UNL1        0.0003
     27 C         139.7371  146.1188  155.0921 C.3     1  UNL1        0.1180
     28 C         139.4343  147.5880  155.1055 C.ar    1  UNL1        0.0693
     29 C         140.0569  148.6246  154.2179 C.ar    1  UNL1        0.0379
     30 C         139.4632  149.9556  154.5728 C.ar    1  UNL1        0.1211
     31 N         138.4737  149.7416  155.6796 N.ar    1  UNL1       -0.1713
     32 N         138.4558  148.2783  156.0089 N.ar    1  UNL1       -0.2784
     33 H         137.8996  147.8467  156.6971 H       1  UNL1        0.1886
@<TRIPOS>BOND
     1    25    26    1
     2    26    24    1
     3    24    23    1
     4    23    17    1
     5    17    18   ar
     6    18    19   ar
     7    19    20   ar
     8    20    14    1
     9    14    15    2
    10    14    16    2
    11    14    12    1
    12    12     1    1
    13     1     2   ar
    14     2     3   ar
    15     3     4   ar
    16     4     5   ar
    17     5     6   ar
    18     5     7    1
    19     7     8    1
    20     8     9    1
    21     9    27    1
    22    27    28    1
    23    28    29   ar
    24    29    30   ar
    25    30    31   ar
    26    31    32   ar
    27     9    10    1
    28    10    11    1
    29    20    21   ar
    30    21    22   ar
    31    22    17   ar
    32     6     1   ar
    33    32    28   ar
    34    11     4    1
    35    12    13    1
    36    32    33    1
@<TRIPOS>MOLECULE
*****
 33 36 0 0 0
SMALL
GASTEIGER

@<TRIPOS>ATOM
      1 C         142.0930  136.7827  156.6506 C.ar    1  UNL1        0.0644
      2 C         141.1005  136.2816  155.6438 C.ar    1  UNL1        0.0155
      3 C         141.0941  134.8333  155.2535 C.ar    1  UNL1       -0.0032
      4 C         142.0804  133.8861  155.8701 C.ar    1  UNL1       -0.0246
      5 C         143.0729  134.3872  156.8769 C.ar    1  UNL1       -0.0234
      6 C         143.0793  135.8355  157.2672 C.ar    1  UNL1        0.0113
      7 C         144.1341  133.6183  157.6069 C.3     1  UNL1        0.0434
      8 C         144.4648  132.1583  157.5102 C.3     1  UNL1        0.0771
      9 N         143.8160  131.1069  156.6598 N.3     1  UNL1       -0.2671
     10 C         142.6762  131.2554  155.6959 C.3     1  UNL1        0.0771
     11 C         141.9038  132.4923  155.3445 C.3     1  UNL1        0.0434
     12 N         142.0993  138.2311  157.0408 N.pl3   1  UNL1       -0.2150
     13 H         141.7338  138.9080  156.4265 H       1  UNL1        0.1737
     14 S         142.6625  138.6480  158.3671 S.O2    1  UNL1        0.0736
     15 O         141.3911  138.2234  159.0405 O.2     1  UNL1       -0.1499
     16 O         143.9339  139.0725  157.6938 O.2     1  UNL1       -0.1499
     17 C         144.3521  139.8987  162.3460 C.ar    1  UNL1       -0.0221
     18 C         144.2203  140.9016  161.2384 C.ar    1  UNL1       -0.0029
     19 C         143.6571  140.4848  159.9121 C.ar    1  UNL1        0.0199
     20 C         143.2257  139.0649  159.6934 C.ar    1  UNL1        0.1251
     21 C         143.3575  138.0619  160.8010 C.ar    1  UNL1        0.0199
     22 C         143.9207  138.4788  162.1273 C.ar    1  UNL1       -0.0029
     23 C         144.9153  140.3155  163.6723 C.3     1  UNL1        0.0264
     24 C         145.5738  141.6552  163.8197 C.3     1  UNL1        0.0047
     25 C         144.0155  143.7337  163.7797 C.3     1  UNL1        0.0000
     26 C         144.8668  142.7629  164.5431 C.3     1  UNL1        0.0003
     27 C         144.3817  129.7238  156.7904 C.3     1  UNL1        0.1180
     28 C         144.3844  129.0374  158.1242 C.ar    1  UNL1        0.0693
     29 C         145.4293  128.0838  158.6230 C.ar    1  UNL1        0.0379
     30 C         145.0333  127.6412  160.0004 C.ar    1  UNL1        0.1211
     31 N         143.7437  128.3212  160.3530 N.ar    1  UNL1       -0.1713
     32 N         143.3426  129.1842  159.1934 N.ar    1  UNL1       -0.2784
     33 H         142.5370  129.7479  159.1430 H       1  UNL1        0.1886
@<TRIPOS>BOND
     1    25    26    1
     2    26    24    1
     3    24    23    1
     4    23    17    1
     5    17    18   ar
     6    18    19   ar
     7    19    20   ar
     8    20    14    1
     9    14    15    2
    10    14    16    2
    11    14    12    1
    12    12     1    1
    13     1     2   ar
    14     2     3   ar
    15     3     4   ar
    16     4     5   ar
    17     5     6   ar
    18     5     7    1
    19     7     8    1
    20     8     9    1
    21     9    27    1
    22    27    28    1
    23    28    29   ar
    24    29    30   ar
    25    30    31   ar
    26    31    32   ar
    27     9    10    1
    28    10    11    1
    29    20    21   ar
    30    21    22   ar
    31    22    17   ar
    32     6     1   ar
    33    32    28   ar
    34    11     4    1
    35    12    13    1
    36    32    33    1
@<TRIPOS>MOLECULE
*****
 33 36 0 0 0
SMALL
GASTEIGER

@<TRIPOS>ATOM
      1 C         142.1903  137.9068  162.6888 C.ar    1  UNL1        0.0644
      2 C         141.0554  137.2802  163.4434 C.ar    1  UNL1        0.0155
      3 C         140.6568  137.8215  164.7844 C.ar    1  UNL1       -0.0032
      4 C         141.3932  138.9894  165.3708 C.ar    1  UNL1       -0.0246
      5 C         142.5280  139.6160  164.6162 C.ar    1  UNL1       -0.0234
      6 C         142.9266  139.0747  163.2753 C.ar    1  UNL1        0.0113
      7 C         143.3881  140.7782  165.0157 C.3     1  UNL1        0.0434
      8 C         143.3256  141.6008  166.2686 C.3     1  UNL1        0.0771
      9 N         142.3878  141.4644  167.4311 N.3     1  UNL1       -0.2671
     10 C         141.2806  140.4717  167.6282 C.3     1  UNL1        0.0771
     11 C         140.8380  139.3702  166.7112 C.3     1  UNL1        0.0434
     12 N         142.5888  137.3655  161.3479 N.pl3   1  UNL1       -0.2150
     13 H         142.6524  136.3930  161.2087 H       1  UNL1        0.1737
     14 S         142.8905  138.3061  160.2190 S.O2    1  UNL1        0.0736
     15 O         141.4216  138.4699  159.9629 O.2     1  UNL1       -0.1499
     16 O         144.3594  138.1423  160.4750 O.2     1  UNL1       -0.1499
     17 C         143.7955  141.1277  156.8323 C.ar    1  UNL1       -0.0221
     18 C         144.0516  141.5495  158.2487 C.ar    1  UNL1       -0.0029
     19 C         143.7499  140.6090  159.3777 C.ar    1  UNL1        0.0199
     20 C         143.1922  139.2466  159.0901 C.ar    1  UNL1        0.1251
     21 C         142.9360  138.8247  157.6736 C.ar    1  UNL1        0.0199
     22 C         143.2377  139.7652  156.5447 C.ar    1  UNL1       -0.0029
     23 C         144.0971  142.0681  155.7033 C.3     1  UNL1        0.0264
     24 C         145.3377  141.8797  154.8814 C.3     1  UNL1        0.0047
     25 C         147.3713  142.4265  156.4032 C.3     1  UNL1        0.0000
     26 C         146.6174  141.4581  155.5409 C.3     1  UNL1        0.0003
     27 C         142.5827  142.4512  168.5439 C.3     1  UNL1        0.1180
     28 C         141.5869  142.5259  169.6632 C.ar    1  UNL1        0.0693
     29 C         140.3049  143.3046  169.6522 C.ar    1  UNL1        0.0379
     30 C         139.6240  143.0950  170.9722 C.ar    1  UNL1        0.1211
     31 N         140.4851  142.1868  171.7990 N.ar    1  UNL1       -0.1713
     32 N         141.6983  141.8350  170.9900 N.ar    1  UNL1       -0.2784
     33 H         142.4378  141.2529  171.2790 H       1  UNL1        0.1886
@<TRIPOS>BOND
     1    25    26    1
     2    26    24    1
     3    24    23    1
     4    23    17    1
     5    17    18   ar
     6    18    19   ar
     7    19    20   ar
     8    20    14    1
     9    14    15    2
    10    14    16    2
    11    14    12    1
    12    12     1    1
    13     1     2   ar
    14     2     3   ar
    15     3     4   ar
    16     4     5   ar
    17     5     6   ar
    18     5     7    1
    19     7     8    1
    20     8     9    1
    21     9    27    1
    22    27    28    1
    23    28    29   ar
    24    29    30   ar
    25    30    31   ar
    26    31    32   ar
    27     9    10    1
    28    10    11    1
    29    20    21   ar
    30    21    22   ar
    31    22    17   ar
    32     6     1   ar
    33    32    28   ar
    34    11     4    1
    35    12    13    1
    36    32    33    1
@<TRIPOS>MOLECULE
*****
 33 36 0 0 0
SMALL
GASTEIGER

@<TRIPOS>ATOM
      1 C         142.0158  144.6149  162.2503 C.ar    1  UNL1        0.0644
      2 C         143.4097  144.6428  162.8038 C.ar    1  UNL1        0.0155
      3 C         143.7368  143.8770  164.0515 C.ar    1  UNL1       -0.0032
      4 C         142.6699  143.0832  164.7456 C.ar    1  UNL1       -0.0246
      5 C         141.2761  143.0553  164.1921 C.ar    1  UNL1       -0.0234
      6 C         140.9490  143.8211  162.9445 C.ar    1  UNL1        0.0113
      7 C         140.0731  142.3339  164.7235 C.3     1  UNL1        0.0434
      8 C         139.9669  141.4623  165.9397 C.3     1  UNL1        0.0771
      9 N         141.0374  141.0968  166.9247 N.3     1  UNL1       -0.2671
     10 C         142.4786  141.5126  166.9370 C.3     1  UNL1        0.0771
     11 C         143.2051  142.3967  165.9672 C.3     1  UNL1        0.0434
     12 N         141.6888  145.3807  161.0027 N.pl3   1  UNL1       -0.2150
     13 H         142.0012  146.3085  160.8985 H       1  UNL1        0.1737
     14 S         140.8858  144.7329  159.9139 S.O2    1  UNL1        0.0736
     15 O         139.7369  145.6486  160.2164 O.2     1  UNL1       -0.1499
     16 O         142.0347  143.8171  159.6114 O.2     1  UNL1       -0.1499
     17 C         138.4768  142.7894  156.6474 C.ar    1  UNL1       -0.0221
     18 C         138.3279  142.3260  158.0662 C.ar    1  UNL1       -0.0029
     19 C         139.1309  142.9738  159.1551 C.ar    1  UNL1        0.0199
     20 C         140.0828  144.0851  158.8251 C.ar    1  UNL1        0.1251
     21 C         140.2318  144.5485  157.4062 C.ar    1  UNL1        0.0199
     22 C         139.4288  143.9007  156.3174 C.ar    1  UNL1       -0.0029
     23 C         137.6739  142.1417  155.5585 C.3     1  UNL1        0.0264
     24 C         136.1815  142.0516  155.6796 C.3     1  UNL1        0.0047
     25 C         134.2099  140.4158  156.1125 C.3     1  UNL1        0.0000
     26 C         135.4828  140.7550  155.3953 C.3     1  UNL1        0.0003
     27 C         140.6103  140.1964  168.0458 C.3     1  UNL1        0.1180
     28 C         140.5707  140.7167  169.4522 C.ar    1  UNL1        0.0693
     29 C         140.2508  142.1233  169.8632 C.ar    1  UNL1        0.0379
     30 C         140.3264  142.1975  171.3595 C.ar    1  UNL1        0.1211
     31 N         140.6930  140.8368  171.8732 N.ar    1  UNL1       -0.1713
     32 N         140.8440  139.9215  170.6944 N.ar    1  UNL1       -0.2784
     33 H         141.0809  138.9666  170.7298 H       1  UNL1        0.1886
@<TRIPOS>BOND
     1    25    26    1
     2    26    24    1
     3    24    23    1
     4    23    17    1
     5    17    18   ar
     6    18    19   ar
     7    19    20   ar
     8    20    14    1
     9    14    15    2
    10    14    16    2
    11    14    12    1
    12    12     1    1
    13     1     2   ar
    14     2     3   ar
    15     3     4   ar
    16     4     5   ar
    17     5     6   ar
    18     5     7    1
    19     7     8    1
    20     8     9    1
    21     9    27    1
    22    27    28    1
    23    28    29   ar
    24    29    30   ar
    25    30    31   ar
    26    31    32   ar
    27     9    10    1
    28    10    11    1
    29    20    21   ar
    30    21    22   ar
    31    22    17   ar
    32     6     1   ar
    33    32    28   ar
    34    11     4    1
    35    12    13    1
    36    32    33    1
@<TRIPOS>MOLECULE
*****
 33 36 0 0 0
SMALL
GASTEIGER

@<TRIPOS>ATOM
      1 C         142.1190  138.1204  161.3615 C.ar    1  UNL1        0.0644
      2 C         142.8380  137.6711  160.1241 C.ar    1  UNL1        0.0155
      3 C         142.2492  137.9473  158.7724 C.ar    1  UNL1       -0.0032
      4 C         140.9412  138.6728  158.6582 C.ar    1  UNL1       -0.0246
      5 C         140.2222  139.1220  159.8955 C.ar    1  UNL1       -0.0234
      6 C         140.8110  138.8459  161.2472 C.ar    1  UNL1        0.0113
      7 C         138.9177  139.8543  160.0053 C.3     1  UNL1        0.0434
      8 C         138.0100  140.3181  158.9048 C.3     1  UNL1        0.0771
      9 N         138.1827  140.1642  157.4228 N.3     1  UNL1       -0.2671
     10 C         139.3057  139.5085  156.6752 C.3     1  UNL1        0.0771
     11 C         140.5334  138.8447  157.2250 C.3     1  UNL1        0.0434
     12 N         142.7079  137.8442  162.7131 N.pl3   1  UNL1       -0.2150
     13 H         143.5521  137.3435  162.7893 H       1  UNL1        0.1737
     14 S         142.0104  138.3309  163.9487 S.O2    1  UNL1        0.0736
     15 O         141.2565  137.0368  164.0329 O.2     1  UNL1       -0.1499
     16 O         142.7643  139.6250  163.8645 O.2     1  UNL1       -0.1499
     17 C         139.9180  139.7910  167.6555 C.ar    1  UNL1       -0.0221
     18 C         141.4161  139.8119  167.5823 C.ar    1  UNL1       -0.0029
     19 C         142.1136  139.3252  166.3468 C.ar    1  UNL1        0.0199
     20 C         141.3129  138.8176  165.1843 C.ar    1  UNL1        0.1251
     21 C         139.8148  138.7967  165.2574 C.ar    1  UNL1        0.0199
     22 C         139.1174  139.2834  166.4930 C.ar    1  UNL1       -0.0029
     23 C         139.2205  140.2777  168.8911 C.3     1  UNL1        0.0264
     24 C         140.0020  140.9622  169.9731 C.3     1  UNL1        0.0047
     25 C         140.4518  143.4418  169.3410 C.3     1  UNL1        0.0000
     26 C         139.8008  142.4259  170.2321 C.3     1  UNL1        0.0003
     27 C         137.0876  140.7425  156.5765 C.3     1  UNL1        0.1180
     28 C         137.2804  142.0698  155.9046 C.ar    1  UNL1        0.0693
     29 C         138.2322  142.3599  154.7822 C.ar    1  UNL1        0.0379
     30 C         138.0951  143.8093  154.4212 C.ar    1  UNL1        0.1211
     31 N         137.0586  144.4151  155.3205 N.ar    1  UNL1       -0.1713
     32 N         136.5550  143.3399  156.2374 N.ar    1  UNL1       -0.2784
     33 H         135.8689  143.4488  156.9350 H       1  UNL1        0.1886
@<TRIPOS>BOND
     1    25    26    1
     2    26    24    1
     3    24    23    1
     4    23    17    1
     5    17    18   ar
     6    18    19   ar
     7    19    20   ar
     8    20    14    1
     9    14    15    2
    10    14    16    2
    11    14    12    1
    12    12     1    1
    13     1     2   ar
    14     2     3   ar
    15     3     4   ar
    16     4     5   ar
    17     5     6   ar
    18     5     7    1
    19     7     8    1
    20     8     9    1
    21     9    27    1
    22    27    28    1
    23    28    29   ar
    24    29    30   ar
    25    30    31   ar
    26    31    32   ar
    27     9    10    1
    28    10    11    1
    29    20    21   ar
    30    21    22   ar
    31    22    17   ar
    32     6     1   ar
    33    32    28   ar
    34    11     4    1
    35    12    13    1
    36    32    33    1
@<TRIPOS>MOLECULE
*****
 33 36 0 0 0
SMALL
GASTEIGER

@<TRIPOS>ATOM
      1 C         143.8847  143.2126  161.5560 C.ar    1  UNL1        0.0644
      2 C         144.6471  142.5678  160.4367 C.ar    1  UNL1        0.0155
      3 C         144.1545  142.6910  159.0252 C.ar    1  UNL1       -0.0032
      4 C         142.8996  143.4591  158.7331 C.ar    1  UNL1       -0.0246
      5 C         142.1373  144.1038  159.8525 C.ar    1  UNL1       -0.0234
      6 C         142.6297  143.9806  161.2639 C.ar    1  UNL1        0.0113
      7 C         140.8731  144.9082  159.7815 C.3     1  UNL1        0.0434
      8 C         140.0591  145.2663  158.5734 C.3     1  UNL1        0.0771
      9 N         140.3083  144.9086  157.1383 N.3     1  UNL1       -0.2671
     10 C         141.4329  144.1044  156.5564 C.3     1  UNL1        0.0771
     11 C         142.5861  143.4593  157.2662 C.3     1  UNL1        0.0434
     12 N         144.3773  143.0894  162.9675 N.pl3   1  UNL1       -0.2150
     13 H         145.3061  143.3306  163.1875 H       1  UNL1        0.1737
     14 S         143.4547  142.5986  164.0436 S.O2    1  UNL1        0.0736
     15 O         143.3961  141.2545  163.3803 O.2     1  UNL1       -0.1499
     16 O         143.5133  143.9427  164.7068 O.2     1  UNL1       -0.1499
     17 C         140.6870  141.1263  167.2720 C.ar    1  UNL1       -0.0221
     18 C         140.2280  142.1885  166.3174 C.ar    1  UNL1       -0.0029
     19 C         141.1505  142.6793  165.2413 C.ar    1  UNL1        0.0199
     20 C         142.5321  142.1079  165.1197 C.ar    1  UNL1        0.1251
     21 C         142.9911  141.0457  166.0743 C.ar    1  UNL1        0.0199
     22 C         142.0685  140.5549  167.1504 C.ar    1  UNL1       -0.0029
     23 C         139.7645  140.6355  168.3481 C.3     1  UNL1        0.0264
     24 C         139.8959  141.1625  169.7463 C.3     1  UNL1        0.0047
     25 C         141.3233  143.3271  169.9111 C.3     1  UNL1        0.0000
     26 C         139.9918  142.6403  169.9849 C.3     1  UNL1        0.0003
     27 C         139.2994  145.4232  156.1547 C.3     1  UNL1        0.1180
     28 C         139.3286  146.8627  155.7339 C.ar    1  UNL1        0.0693
     29 C         139.9429  147.4014  154.4760 C.ar    1  UNL1        0.0379
     30 C         139.7425  148.8878  154.4619 C.ar    1  UNL1        0.1211
     31 N         139.0043  149.2679  155.7111 N.ar    1  UNL1       -0.1713
     32 N         138.7484  148.0163  156.4973 N.ar    1  UNL1       -0.2784
     33 H         138.2817  147.9616  157.3625 H       1  UNL1        0.1886
@<TRIPOS>BOND
     1    25    26    1
     2    26    24    1
     3    24    23    1
     4    23    17    1
     5    17    18   ar
     6    18    19   ar
     7    19    20   ar
     8    20    14    1
     9    14    15    2
    10    14    16    2
    11    14    12    1
    12    12     1    1
    13     1     2   ar
    14     2     3   ar
    15     3     4   ar
    16     4     5   ar
    17     5     6   ar
    18     5     7    1
    19     7     8    1
    20     8     9    1
    21     9    27    1
    22    27    28    1
    23    28    29   ar
    24    29    30   ar
    25    30    31   ar
    26    31    32   ar
    27     9    10    1
    28    10    11    1
    29    20    21   ar
    30    21    22   ar
    31    22    17   ar
    32     6     1   ar
    33    32    28   ar
    34    11     4    1
    35    12    13    1
    36    32    33    1
@<TRIPOS>MOLECULE
*****
 33 36 0 0 0
SMALL
GASTEIGER

@<TRIPOS>ATOM
      1 C         141.7588  138.0767  161.5084 C.ar    1  UNL1        0.0644
      2 C         142.6388  137.8531  160.3144 C.ar    1  UNL1        0.0155
      3 C         142.2600  138.4340  158.9842 C.ar    1  UNL1       -0.0032
      4 C         141.0012  139.2384  158.8482 C.ar    1  UNL1       -0.0246
      5 C         140.1213  139.4619  160.0422 C.ar    1  UNL1       -0.0234
      6 C         140.5001  138.8811  161.3723 C.ar    1  UNL1        0.0113
      7 C         138.8335  140.2267  160.1249 C.3     1  UNL1        0.0434
      8 C         138.1076  140.9567  159.0339 C.3     1  UNL1        0.0771
      9 N         138.4902  141.1022  157.5909 N.3     1  UNL1       -0.2671
     10 C         139.6932  140.5538  156.8824 C.3     1  UNL1        0.0771
     11 C         140.8107  139.7243  157.4419 C.3     1  UNL1        0.0434
     12 N         142.1377  137.4959  162.8384 N.pl3   1  UNL1       -0.2150
     13 H         142.7234  136.7058  162.8817 H       1  UNL1        0.1737
     14 S         141.6240  138.1188  164.1026 S.O2    1  UNL1        0.0736
     15 O         142.6830  139.1772  164.0113 O.2     1  UNL1       -0.1499
     16 O         140.5650  137.0605  164.1938 O.2     1  UNL1       -0.1499
     17 C         140.0829  139.9878  167.8950 C.ar    1  UNL1       -0.0221
     18 C         139.1197  139.5066  166.8507 C.ar    1  UNL1       -0.0029
     19 C         139.6333  138.8836  165.5866 C.ar    1  UNL1        0.0199
     20 C         141.1103  138.7418  165.3667 C.ar    1  UNL1        0.1251
     21 C         142.0736  139.2230  166.4110 C.ar    1  UNL1        0.0199
     22 C         141.5600  139.8460  167.6751 C.ar    1  UNL1       -0.0029
     23 C         139.5693  140.6108  169.1592 C.3     1  UNL1        0.0264
     24 C         140.5270  141.0009  170.2458 C.3     1  UNL1        0.0047
     25 C         140.4676  143.4901  169.5039 C.3     1  UNL1        0.0000
     26 C         140.7783  142.4503  170.5393 C.3     1  UNL1        0.0003
     27 C         137.5447  141.9020  156.7444 C.3     1  UNL1        0.1180
     28 C         136.2900  141.2696  156.2191 C.ar    1  UNL1        0.0693
     29 C         135.6035  141.6112  154.9299 C.ar    1  UNL1        0.0379
     30 C         134.3908  140.7373  154.8049 C.ar    1  UNL1        0.1211
     31 N         134.3278  139.8555  156.0167 N.ar    1  UNL1       -0.1713
     32 N         135.5017  140.1845  156.8908 N.ar    1  UNL1       -0.2784
     33 H         135.7169  139.7624  157.7538 H       1  UNL1        0.1886
@<TRIPOS>BOND
     1    25    26    1
     2    26    24    1
     3    24    23    1
     4    23    17    1
     5    17    18   ar
     6    18    19   ar
     7    19    20   ar
     8    20    14    1
     9    14    15    2
    10    14    16    2
    11    14    12    1
    12    12     1    1
    13     1     2   ar
    14     2     3   ar
    15     3     4   ar
    16     4     5   ar
    17     5     6   ar
    18     5     7    1
    19     7     8    1
    20     8     9    1
    21     9    27    1
    22    27    28    1
    23    28    29   ar
    24    29    30   ar
    25    30    31   ar
    26    31    32   ar
    27     9    10    1
    28    10    11    1
    29    20    21   ar
    30    21    22   ar
    31    22    17   ar
    32     6     1   ar
    33    32    28   ar
    34    11     4    1
    35    12    13    1
    36    32    33    1
@<TRIPOS>MOLECULE
*****
 33 36 0 0 0
SMALL
GASTEIGER

@<TRIPOS>ATOM
      1 C         137.0703  141.4718  155.4688 C.ar    1  UNL1        0.0644
      2 C         137.6826  142.5195  154.5870 C.ar    1  UNL1        0.0155
      3 C         138.5666  143.5762  155.1804 C.ar    1  UNL1       -0.0032
      4 C         138.8382  143.5851  156.6557 C.ar    1  UNL1       -0.0246
      5 C         138.2259  142.5375  157.5373 C.ar    1  UNL1       -0.0234
      6 C         137.3420  141.4809  156.9440 C.ar    1  UNL1        0.0113
      7 C         138.3657  142.3653  159.0209 C.3     1  UNL1        0.0434
      8 C         139.1525  143.1983  159.9891 C.3     1  UNL1        0.0771
      9 N         139.9936  144.4090  159.7128 N.3     1  UNL1       -0.2671
     10 C         140.2559  145.0860  158.4002 C.3     1  UNL1        0.0771
     11 C         139.7417  144.7193  157.0396 C.3     1  UNL1        0.0434
     12 N         136.1864  140.4153  154.8753 N.pl3   1  UNL1       -0.2150
     13 H         136.5458  139.7944  154.2011 H       1  UNL1        0.1737
     14 S         134.7547  140.3047  155.3091 S.O2    1  UNL1        0.0736
     15 O         134.5477  141.7570  154.9961 O.2     1  UNL1       -0.1499
     16 O         134.9617  138.8524  155.6221 O.2     1  UNL1       -0.1499
     17 C         130.4597  139.9729  156.6105 C.ar    1  UNL1       -0.0221
     18 C         131.4246  138.8667  156.9191 C.ar    1  UNL1       -0.0029
     19 C         132.8562  138.9772  156.4854 C.ar    1  UNL1        0.0199
     20 C         133.3231  140.1941  155.7429 C.ar    1  UNL1        0.1251
     21 C         132.3582  141.3004  155.4343 C.ar    1  UNL1        0.0199
     22 C         130.9266  141.1899  155.8681 C.ar    1  UNL1       -0.0029
     23 C         129.0281  139.8625  157.0443 C.3     1  UNL1        0.0264
     24 C         128.6650  139.0062  158.2211 C.3     1  UNL1        0.0047
     25 C         127.5230  140.3651  160.1183 C.3     1  UNL1        0.0000
     26 C         128.6954  139.5824  159.6057 C.3     1  UNL1        0.0003
     27 C         140.6608  145.0243  160.9071 C.3     1  UNL1        0.1180
     28 C         142.0168  144.5482  161.3369 C.ar    1  UNL1        0.0693
     29 C         142.7378  143.3445  160.8063 C.ar    1  UNL1        0.0379
     30 C         144.0564  143.2447  161.5143 C.ar    1  UNL1        0.1211
     31 N         144.1505  144.3866  162.4824 N.ar    1  UNL1       -0.1713
     32 N         142.8899  145.1923  162.3727 N.ar    1  UNL1       -0.2784
     33 H         142.6736  146.0016  162.8898 H       1  UNL1        0.1886
@<TRIPOS>BOND
     1    25    26    1
     2    26    24    1
     3    24    23    1
     4    23    17    1
     5    17    18   ar
     6    18    19   ar
     7    19    20   ar
     8    20    14    1
     9    14    15    2
    10    14    16    2
    11    14    12    1
    12    12     1    1
    13     1     2   ar
    14     2     3   ar
    15     3     4   ar
    16     4     5   ar
    17     5     6   ar
    18     5     7    1
    19     7     8    1
    20     8     9    1
    21     9    27    1
    22    27    28    1
    23    28    29   ar
    24    29    30   ar
    25    30    31   ar
    26    31    32   ar
    27     9    10    1
    28    10    11    1
    29    20    21   ar
    30    21    22   ar
    31    22    17   ar
    32     6     1   ar
    33    32    28   ar
    34    11     4    1
    35    12    13    1
    36    32    33    1
