@<TRIPOS>MOLECULE
*****
 35 38 0 0 0
SMALL
GASTEIGER

@<TRIPOS>ATOM
      1 C         140.9944  142.4608  166.0280 C.3     1  UNL1        0.1121
      2 C         141.3123  142.5138  167.4929 C.ar    1  UNL1       -0.0068
      3 C         140.4413  142.6705  168.7040 C.ar    1  UNL1       -0.0029
      4 C         141.0556  142.6884  170.0723 C.ar    1  UNL1       -0.0003
      5 C         142.5408  142.5495  170.2296 C.ar    1  UNL1       -0.0003
      6 C         143.4118  142.3927  169.0185 C.ar    1  UNL1       -0.0045
      7 C         142.7976  142.3749  167.6502 C.ar    1  UNL1       -0.0228
      8 C         143.3975  142.2361  166.2824 C.3     1  UNL1        0.0477
      9 C         142.2831  142.2892  165.2798 C.3     1  UNL1        0.0983
     10 C         139.2695  143.7477  164.5723 C.2     1  UNL1        0.2241
     11 O         140.2781  144.8326  164.3362 O.2     1  UNL1       -0.2750
     12 N         139.6277  142.5618  165.4182 N.am    1  UNL1       -0.3007
     13 H         138.9657  141.8498  165.5732 H       1  UNL1        0.1497
     14 C         137.9027  143.8487  163.9626 C.3     1  UNL1        0.1021
     15 C         137.4801  142.8740  162.9037 C.3     1  UNL1        0.0783
     16 N         136.9899  141.5106  163.2920 N.3     1  UNL1       -0.2950
     17 H         136.8857  141.5131  164.3066 H       1  UNL1        0.1233
     18 C         137.7974  140.2956  162.9426 C.3     1  UNL1        0.1011
     19 C         138.4294  139.4772  164.0293 C.3     1  UNL1        0.1593
     20 C         137.9591  138.8621  166.5092 C.3     1  UNL1        0.1742
     21 O         138.2770  139.8893  165.4634 O.3     1  UNL1       -0.3496
     22 N         142.4314  142.1884  163.7906 N.am    1  UNL1       -0.2990
     23 C         143.0900  143.2979  163.0256 C.2     1  UNL1        0.2618
     24 O         143.6004  144.5083  163.7499 O.2     1  UNL1       -0.2686
     25 H         142.0964  141.3940  163.3152 H       1  UNL1        0.1498
     26 C         143.2383  143.1971  161.5364 C.ar    1  UNL1        0.1140
     27 C         144.3316  142.4750  160.8061 C.ar    1  UNL1        0.0232
     28 C         144.0883  142.6323  159.3343 C.ar    1  UNL1        0.0174
     29 C         144.8385  142.1354  158.1342 C.ar    1  UNL1        0.0015
     30 C         144.3451  142.4578  156.7549 C.ar    1  UNL1        0.0001
     31 C         143.1014  143.2770  156.5756 C.ar    1  UNL1        0.0015
     32 C         142.3511  143.7739  157.7757 C.ar    1  UNL1        0.0172
     33 C         142.8446  143.4516  159.1550 C.ar    1  UNL1        0.0600
     34 N         142.3193  143.8006  160.5160 N.ar    1  UNL1       -0.3216
     35 C         141.0906  144.6109  160.8057 C.3     1  UNL1        0.1306
@<TRIPOS>BOND
     1    20    21    1
     2    21    19    1
     3    19    18    1
     4    18    16    1
     5    16    15    1
     6    15    14    1
     7    14    10    1
     8    10    11    2
     9    10    12   am
    10     1    12    1
    11     1     2    1
    12     2     3   ar
    13     3     4   ar
    14     4     5   ar
    15     5     6   ar
    16     6     7   ar
    17     7     8    1
    18     8     9    1
    19     9    22    1
    20    22    23   am
    21    23    24    2
    22    23    26    1
    23    26    27   ar
    24    27    28   ar
    25    28    29   ar
    26    29    30   ar
    27    30    31   ar
    28    31    32   ar
    29    32    33   ar
    30    33    34   ar
    31    34    35    1
    32     9     1    1
    33    34    26   ar
    34     7     2   ar
    35    33    28   ar
    36    16    17    1
    37    12    13    1
    38    22    25    1
@<TRIPOS>MOLECULE
*****
 35 38 0 0 0
SMALL
GASTEIGER

@<TRIPOS>ATOM
      1 C         142.8951  141.5183  166.1825 C.3     1  UNL1        0.1121
      2 C         142.9111  141.2784  167.6631 C.ar    1  UNL1       -0.0068
      3 C         143.1881  142.1868  168.8241 C.ar    1  UNL1       -0.0029
      4 C         143.1291  141.6531  170.2247 C.ar    1  UNL1       -0.0003
      5 C         142.7932  140.2109  170.4642 C.ar    1  UNL1       -0.0003
      6 C         142.5161  139.3025  169.3031 C.ar    1  UNL1       -0.0045
      7 C         142.5751  139.8363  167.9026 C.ar    1  UNL1       -0.0228
      8 C         142.3515  139.1849  166.5700 C.3     1  UNL1        0.0477
      9 C         142.5493  140.2245  165.5069 C.3     1  UNL1        0.0983
     10 C         142.1570  143.4181  164.5712 C.2     1  UNL1        0.2241
     11 O         140.8578  142.7085  164.3295 O.2     1  UNL1       -0.2750
     12 N         143.1757  142.8230  165.4977 N.am    1  UNL1       -0.3007
     13 H         144.0285  143.2888  165.6563 H       1  UNL1        0.1497
     14 C         142.4377  144.7229  163.8864 C.3     1  UNL1        0.1021
     15 C         141.3291  145.4616  163.1969 C.3     1  UNL1        0.0783
     16 N         139.9189  145.3290  163.6907 N.3     1  UNL1       -0.2950
     17 H         139.9220  144.5921  164.3960 H       1  UNL1        0.1233
     18 C         138.8149  145.0033  162.7288 C.3     1  UNL1        0.1011
     19 C         137.7518  144.0174  163.1132 C.3     1  UNL1        0.1593
     20 C         137.3202  141.4602  162.9581 C.3     1  UNL1        0.1742
     21 O         137.5391  142.7837  162.2870 O.3     1  UNL1       -0.3496
     22 N         142.4234  140.0082  164.0279 N.am    1  UNL1       -0.2990
     23 C         143.6200  139.5887  163.2267 C.2     1  UNL1        0.2618
     24 O         144.9427  139.3855  163.9045 O.2     1  UNL1       -0.2686
     25 H         141.5553  140.1415  163.5831 H       1  UNL1        0.1498
     26 C         143.4941  139.3724  161.7478 C.ar    1  UNL1        0.1140
     27 C         143.0291  138.1137  161.0772 C.ar    1  UNL1        0.0232
     28 C         143.0587  138.3402  159.5947 C.ar    1  UNL1        0.0174
     29 C         142.7081  137.4536  158.4367 C.ar    1  UNL1        0.0015
     30 C         142.8406  137.9656  157.0331 C.ar    1  UNL1        0.0001
     31 C         143.3239  139.3642  156.7874 C.ar    1  UNL1        0.0015
     32 C         143.6745  140.2508  157.9453 C.ar    1  UNL1        0.0172
     33 C         143.5420  139.7388  159.3490 C.ar    1  UNL1        0.0600
     34 N         143.8110  140.3767  160.6796 N.ar    1  UNL1       -0.3216
     35 C         144.3095  141.7738  160.9030 C.3     1  UNL1        0.1306
@<TRIPOS>BOND
     1    20    21    1
     2    21    19    1
     3    19    18    1
     4    18    16    1
     5    16    15    1
     6    15    14    1
     7    14    10    1
     8    10    11    2
     9    10    12   am
    10     1    12    1
    11     1     2    1
    12     2     3   ar
    13     3     4   ar
    14     4     5   ar
    15     5     6   ar
    16     6     7   ar
    17     7     8    1
    18     8     9    1
    19     9    22    1
    20    22    23   am
    21    23    24    2
    22    23    26    1
    23    26    27   ar
    24    27    28   ar
    25    28    29   ar
    26    29    30   ar
    27    30    31   ar
    28    31    32   ar
    29    32    33   ar
    30    33    34   ar
    31    34    35    1
    32     9     1    1
    33    34    26   ar
    34     7     2   ar
    35    33    28   ar
    36    16    17    1
    37    12    13    1
    38    22    25    1
@<TRIPOS>MOLECULE
*****
 35 38 0 0 0
SMALL
GASTEIGER

@<TRIPOS>ATOM
      1 C         140.6425  142.0390  165.8076 C.3     1  UNL1        0.1121
      2 C         140.3452  141.8698  167.2681 C.ar    1  UNL1       -0.0068
      3 C         140.5740  142.7656  168.4492 C.ar    1  UNL1       -0.0029
      4 C         140.1635  142.3178  169.8207 C.ar    1  UNL1       -0.0003
      5 C         139.5242  140.9742  170.0110 C.ar    1  UNL1       -0.0003
      6 C         139.2954  140.0785  168.8298 C.ar    1  UNL1       -0.0045
      7 C         139.7059  140.5263  167.4583 C.ar    1  UNL1       -0.0228
      8 C         139.6082  139.8651  166.1154 C.3     1  UNL1        0.0477
      9 C         140.1870  140.8000  165.0952 C.3     1  UNL1        0.0983
     10 C         142.7416  143.2108  164.8222 C.2     1  UNL1        0.2241
     11 O         143.5598  141.9869  165.1095 O.2     1  UNL1       -0.2750
     12 N         141.2829  143.2369  165.1712 N.am    1  UNL1       -0.3007
     13 H         140.7459  144.0402  164.9826 H       1  UNL1        0.1497
     14 C         143.3820  144.4087  164.1858 C.3     1  UNL1        0.1021
     15 C         142.7173  145.0860  163.0242 C.3     1  UNL1        0.0783
     16 N         141.4510  145.8624  163.2332 N.3     1  UNL1       -0.2950
     17 H         141.1082  145.6219  164.1633 H       1  UNL1        0.1233
     18 C         140.2991  145.6871  162.2884 C.3     1  UNL1        0.1011
     19 C         139.8980  144.3124  161.8418 C.3     1  UNL1        0.1593
     20 C         137.8098  143.0297  162.7044 C.3     1  UNL1        0.1742
     21 O         139.2684  143.3613  162.8160 O.3     1  UNL1       -0.3496
     22 N         140.2919  140.5414  163.6214 N.am    1  UNL1       -0.2990
     23 C         141.3819  139.6582  163.0906 C.2     1  UNL1        0.2618
     24 O         142.3671  139.0336  164.0337 O.2     1  UNL1       -0.2686
     25 H         139.6453  140.9513  163.0024 H       1  UNL1        0.1498
     26 C         141.4868  139.3996  161.6168 C.ar    1  UNL1        0.1140
     27 C         142.6392  139.7795  160.7348 C.ar    1  UNL1        0.0232
     28 C         142.3223  139.3303  159.3391 C.ar    1  UNL1        0.0174
     29 C         143.0872  139.4351  158.0531 C.ar    1  UNL1        0.0015
     30 C         142.5040  138.8823  156.7865 C.ar    1  UNL1        0.0001
     31 C         141.1559  138.2249  156.8059 C.ar    1  UNL1        0.0015
     32 C         140.3910  138.1201  158.0920 C.ar    1  UNL1        0.0172
     33 C         140.9742  138.6728  159.3586 C.ar    1  UNL1        0.0600
     34 N         140.4579  138.7156  160.7662 N.ar    1  UNL1       -0.3216
     35 C         139.1433  138.1703  161.2401 C.3     1  UNL1        0.1306
@<TRIPOS>BOND
     1    20    21    1
     2    21    19    1
     3    19    18    1
     4    18    16    1
     5    16    15    1
     6    15    14    1
     7    14    10    1
     8    10    11    2
     9    10    12   am
    10     1    12    1
    11     1     2    1
    12     2     3   ar
    13     3     4   ar
    14     4     5   ar
    15     5     6   ar
    16     6     7   ar
    17     7     8    1
    18     8     9    1
    19     9    22    1
    20    22    23   am
    21    23    24    2
    22    23    26    1
    23    26    27   ar
    24    27    28   ar
    25    28    29   ar
    26    29    30   ar
    27    30    31   ar
    28    31    32   ar
    29    32    33   ar
    30    33    34   ar
    31    34    35    1
    32     9     1    1
    33    34    26   ar
    34     7     2   ar
    35    33    28   ar
    36    16    17    1
    37    12    13    1
    38    22    25    1
@<TRIPOS>MOLECULE
*****
 35 38 0 0 0
SMALL
GASTEIGER

@<TRIPOS>ATOM
      1 C         140.5106  140.8235  166.7880 C.3     1  UNL1        0.1121
      2 C         140.4497  141.0442  168.2705 C.ar    1  UNL1       -0.0068
      3 C         140.4225  140.0895  169.4271 C.ar    1  UNL1       -0.0029
      4 C         140.3592  140.6138  170.8310 C.ar    1  UNL1       -0.0003
      5 C         140.3230  142.0928  171.0783 C.ar    1  UNL1       -0.0003
      6 C         140.3502  143.0475  169.9217 C.ar    1  UNL1       -0.0045
      7 C         140.4135  142.5232  168.5178 C.ar    1  UNL1       -0.0228
      8 C         140.4520  143.2166  167.1882 C.3     1  UNL1        0.0477
      9 C         140.5120  142.1661  166.1192 C.3     1  UNL1        0.0983
     10 C         139.3419  138.9623  165.4022 C.2     1  UNL1        0.2241
     11 O         138.0721  139.7609  165.4005 O.2     1  UNL1       -0.2750
     12 N         140.5611  139.4936  166.0960 N.am    1  UNL1       -0.3007
     13 H         141.3945  138.9695  166.0971 H       1  UNL1        0.1497
     14 C         139.3924  137.6325  164.7102 C.3     1  UNL1        0.1021
     15 C         139.7518  137.5571  163.2559 C.3     1  UNL1        0.0783
     16 N         141.1000  137.0463  162.8420 N.3     1  UNL1       -0.2950
     17 H         141.4048  136.3979  163.5681 H       1  UNL1        0.1233
     18 C         142.2297  138.0073  162.6177 C.3     1  UNL1        0.1011
     19 C         142.0067  139.4805  162.7908 C.3     1  UNL1        0.1593
     20 C         143.8113  139.5950  164.6563 C.3     1  UNL1        0.1742
     21 O         142.6441  140.2056  163.9388 O.3     1  UNL1       -0.3496
     22 N         140.5643  142.4146  164.6408 N.am    1  UNL1       -0.2990
     23 C         139.3294  142.8506  163.9094 C.2     1  UNL1        0.2618
     24 O         138.0422  143.0381  164.6564 O.2     1  UNL1       -0.2686
     25 H         141.4091  142.2916  164.1505 H       1  UNL1        0.1498
     26 C         139.3817  143.0991  162.4311 C.ar    1  UNL1        0.1140
     27 C         138.7284  142.2608  161.3725 C.ar    1  UNL1        0.0232
     28 C         139.0394  142.8731  160.0389 C.ar    1  UNL1        0.0174
     29 C         138.6619  142.4800  158.6415 C.ar    1  UNL1        0.0015
     30 C         139.1299  143.3035  157.4784 C.ar    1  UNL1        0.0001
     31 C         139.9753  144.5202  157.7128 C.ar    1  UNL1        0.0015
     32 C         140.3527  144.9134  159.1103 C.ar    1  UNL1        0.0172
     33 C         139.8848  144.0898  160.2733 C.ar    1  UNL1        0.0600
     34 N         140.0963  144.2295  161.7518 N.ar    1  UNL1       -0.3216
     35 C         140.8842  145.3098  162.4315 C.3     1  UNL1        0.1306
@<TRIPOS>BOND
     1    20    21    1
     2    21    19    1
     3    19    18    1
     4    18    16    1
     5    16    15    1
     6    15    14    1
     7    14    10    1
     8    10    11    2
     9    10    12   am
    10     1    12    1
    11     1     2    1
    12     2     3   ar
    13     3     4   ar
    14     4     5   ar
    15     5     6   ar
    16     6     7   ar
    17     7     8    1
    18     8     9    1
    19     9    22    1
    20    22    23   am
    21    23    24    2
    22    23    26    1
    23    26    27   ar
    24    27    28   ar
    25    28    29   ar
    26    29    30   ar
    27    30    31   ar
    28    31    32   ar
    29    32    33   ar
    30    33    34   ar
    31    34    35    1
    32     9     1    1
    33    34    26   ar
    34     7     2   ar
    35    33    28   ar
    36    16    17    1
    37    12    13    1
    38    22    25    1
@<TRIPOS>MOLECULE
*****
 35 38 0 0 0
SMALL
GASTEIGER

@<TRIPOS>ATOM
      1 C         139.3051  141.0723  160.9818 C.3     1  UNL1        0.1121
      2 C         139.3140  140.7544  159.5159 C.ar    1  UNL1       -0.0068
      3 C         139.1265  141.6143  158.3013 C.ar    1  UNL1       -0.0029
      4 C         139.1893  141.0032  156.9329 C.ar    1  UNL1       -0.0003
      5 C         139.4396  139.5323  156.7791 C.ar    1  UNL1       -0.0003
      6 C         139.6271  138.6724  157.9938 C.ar    1  UNL1       -0.0045
      7 C         139.5643  139.2835  159.3622 C.ar    1  UNL1       -0.0228
      8 C         139.7101  138.6923  160.7330 C.3     1  UNL1        0.0477
      9 C         139.5499  139.7979  161.7341 C.3     1  UNL1        0.0983
     10 C         137.9267  142.6605  162.5077 C.2     1  UNL1        0.2241
     11 O         136.9800  141.5394  162.8193 O.2     1  UNL1       -0.2750
     12 N         139.0892  142.4269  161.5889 N.am    1  UNL1       -0.3007
     13 H         139.7105  143.1627  161.3843 H       1  UNL1        0.1497
     14 C         137.7108  144.0151  163.1147 C.3     1  UNL1        0.1021
     15 C         138.7981  144.6552  163.9259 C.3     1  UNL1        0.0783
     16 N         140.2252  144.2367  163.7300 N.3     1  UNL1       -0.2950
     17 H         140.6117  144.0652  164.6582 H       1  UNL1        0.1233
     18 C         141.1839  145.1487  163.0234 C.3     1  UNL1        0.1011
     19 C         142.1214  144.5966  161.9907 C.3     1  UNL1        0.1593
     20 C         144.4308  143.4081  162.0517 C.3     1  UNL1        0.1742
     21 O         143.6030  144.6477  162.2192 O.3     1  UNL1       -0.3496
     22 N         139.6219  139.6543  163.2254 N.am    1  UNL1       -0.2990
     23 C         140.5962  140.4798  164.0123 C.2     1  UNL1        0.2618
     24 O         141.4986  141.4491  163.3077 O.2     1  UNL1       -0.2686
     25 H         139.0296  139.0181  163.6878 H       1  UNL1        0.1498
     26 C         140.6681  140.3362  165.5036 C.ar    1  UNL1        0.1140
     27 C         139.5573  140.6189  166.4713 C.ar    1  UNL1        0.0232
     28 C         140.0663  140.3421  167.8549 C.ar    1  UNL1        0.0174
     29 C         139.4160  140.4446  169.2027 C.ar    1  UNL1        0.0015
     30 C         140.1909  140.0933  170.4380 C.ar    1  UNL1        0.0001
     31 C         141.6162  139.6395  170.3255 C.ar    1  UNL1        0.0015
     32 C         142.2665  139.5370  168.9777 C.ar    1  UNL1        0.0172
     33 C         141.4915  139.8882  167.7424 C.ar    1  UNL1        0.0600
     34 N         141.8635  139.8846  166.2893 N.ar    1  UNL1       -0.3216
     35 C         143.1968  139.4974  165.7214 C.3     1  UNL1        0.1306
@<TRIPOS>BOND
     1    20    21    1
     2    21    19    1
     3    19    18    1
     4    18    16    1
     5    16    15    1
     6    15    14    1
     7    14    10    1
     8    10    11    2
     9    10    12   am
    10     1    12    1
    11     1     2    1
    12     2     3   ar
    13     3     4   ar
    14     4     5   ar
    15     5     6   ar
    16     6     7   ar
    17     7     8    1
    18     8     9    1
    19     9    22    1
    20    22    23   am
    21    23    24    2
    22    23    26    1
    23    26    27   ar
    24    27    28   ar
    25    28    29   ar
    26    29    30   ar
    27    30    31   ar
    28    31    32   ar
    29    32    33   ar
    30    33    34   ar
    31    34    35    1
    32     9     1    1
    33    34    26   ar
    34     7     2   ar
    35    33    28   ar
    36    16    17    1
    37    12    13    1
    38    22    25    1
@<TRIPOS>MOLECULE
*****
 35 38 0 0 0
SMALL
GASTEIGER

@<TRIPOS>ATOM
      1 C         140.7778  142.0243  166.0606 C.3     1  UNL1        0.1121
      2 C         140.4887  141.9542  167.5308 C.ar    1  UNL1       -0.0068
      3 C         140.8130  142.8832  168.6630 C.ar    1  UNL1       -0.0029
      4 C         140.3853  142.5415  170.0595 C.ar    1  UNL1       -0.0003
      5 C         139.6332  141.2708  170.3238 C.ar    1  UNL1       -0.0003
      6 C         139.3089  140.3419  169.1917 C.ar    1  UNL1       -0.0045
      7 C         139.7366  140.6836  167.7952 C.ar    1  UNL1       -0.0228
      8 C         139.5610  139.9684  166.4884 C.3     1  UNL1        0.0477
      9 C         140.2045  140.7971  165.4163 C.3     1  UNL1        0.0983
     10 C         140.8065  143.9608  164.3287 C.2     1  UNL1        0.2241
     11 O         139.3678  143.6898  164.0019 O.2     1  UNL1       -0.2750
     12 N         141.5115  143.1280  165.3581 N.am    1  UNL1       -0.3007
     13 H         142.4558  143.3059  165.5726 H       1  UNL1        0.1497
     14 C         141.5402  145.0645  163.6261 C.3     1  UNL1        0.1021
     15 C         143.0330  145.1615  163.7363 C.3     1  UNL1        0.0783
     16 N         143.8895  144.9554  162.5223 N.3     1  UNL1       -0.2950
     17 H         143.3226  145.2138  161.7146 H       1  UNL1        0.1233
     18 C         144.4652  143.6010  162.2316 C.3     1  UNL1        0.1011
     19 C         143.6369  142.3704  162.4544 C.3     1  UNL1        0.1593
     20 C         144.8139  140.9294  164.2677 C.3     1  UNL1        0.1742
     21 O         143.6213  141.7107  163.8014 O.3     1  UNL1       -0.3496
     22 N         140.2642  140.4580  163.9564 N.am    1  UNL1       -0.2990
     23 C         141.1097  139.3116  163.4866 C.2     1  UNL1        0.2618
     24 O         141.8956  138.5041  164.4769 O.2     1  UNL1       -0.2686
     25 H         139.7484  140.9879  163.3065 H       1  UNL1        0.1498
     26 C         141.1694  138.9725  162.0267 C.ar    1  UNL1        0.1140
     27 C         140.0222  139.0253  161.0616 C.ar    1  UNL1        0.0232
     28 C         140.5306  138.6065  159.7140 C.ar    1  UNL1        0.0174
     29 C         139.8517  138.4686  158.3836 C.ar    1  UNL1        0.0015
     30 C         140.6340  138.0192  157.1853 C.ar    1  UNL1        0.0001
     31 C         142.0953  137.7077  157.3174 C.ar    1  UNL1        0.0015
     32 C         142.7743  137.8455  158.6478 C.ar    1  UNL1        0.0172
     33 C         141.9920  138.2949  159.8461 C.ar    1  UNL1        0.0600
     34 N         142.3867  138.5212  161.2754 N.ar    1  UNL1       -0.3216
     35 C         143.7581  138.3296  161.8522 C.3     1  UNL1        0.1306
@<TRIPOS>BOND
     1    20    21    1
     2    21    19    1
     3    19    18    1
     4    18    16    1
     5    16    15    1
     6    15    14    1
     7    14    10    1
     8    10    11    2
     9    10    12   am
    10     1    12    1
    11     1     2    1
    12     2     3   ar
    13     3     4   ar
    14     4     5   ar
    15     5     6   ar
    16     6     7   ar
    17     7     8    1
    18     8     9    1
    19     9    22    1
    20    22    23   am
    21    23    24    2
    22    23    26    1
    23    26    27   ar
    24    27    28   ar
    25    28    29   ar
    26    29    30   ar
    27    30    31   ar
    28    31    32   ar
    29    32    33   ar
    30    33    34   ar
    31    34    35    1
    32     9     1    1
    33    34    26   ar
    34     7     2   ar
    35    33    28   ar
    36    16    17    1
    37    12    13    1
    38    22    25    1
@<TRIPOS>MOLECULE
*****
 35 38 0 0 0
SMALL
GASTEIGER

@<TRIPOS>ATOM
      1 C         142.0505  143.7309  160.4426 C.3     1  UNL1        0.1121
      2 C         141.8771  144.3286  159.0778 C.ar    1  UNL1       -0.0068
      3 C         142.6300  144.1363  157.7948 C.ar    1  UNL1       -0.0029
      4 C         142.2172  144.8867  156.5634 C.ar    1  UNL1       -0.0003
      5 C         141.0516  145.8294  156.6149 C.ar    1  UNL1       -0.0003
      6 C         140.2987  146.0217  157.8979 C.ar    1  UNL1       -0.0045
      7 C         140.7114  145.2713  159.1294 C.ar    1  UNL1       -0.0228
      8 C         140.1645  145.2561  160.5260 C.3     1  UNL1        0.0477
      9 C         140.9920  144.3041  161.3377 C.3     1  UNL1        0.0983
     10 C         144.1422  143.1088  161.8525 C.2     1  UNL1        0.2241
     11 O         144.1381  144.4788  162.4632 O.2     1  UNL1       -0.2750
     12 N         143.0984  142.7348  160.8422 N.am    1  UNL1       -0.3007
     13 H         143.1011  141.8356  160.4414 H       1  UNL1        0.1497
     14 C         145.1902  142.1127  162.2521 C.3     1  UNL1        0.1021
     15 C         144.7960  140.7071  162.5972 C.3     1  UNL1        0.0783
     16 N         143.5783  140.0946  161.9710 N.3     1  UNL1       -0.2950
     17 H         142.7693  140.5050  162.4373 H       1  UNL1        0.1233
     18 C         143.3871  138.6070  162.0014 C.3     1  UNL1        0.1011
     19 C         142.2784  138.0099  162.8164 C.3     1  UNL1        0.1593
     20 C         140.2045  138.1103  161.2548 C.3     1  UNL1        0.1742
     21 O         141.1315  137.3248  162.1344 O.3     1  UNL1       -0.3496
     22 N         140.7957  143.9819  162.7894 N.am    1  UNL1       -0.2990
     23 C         140.6582  142.5544  163.2289 C.2     1  UNL1        0.2618
     24 O         140.7171  141.4489  162.2166 O.2     1  UNL1       -0.2686
     25 H         140.7570  144.7074  163.4538 H       1  UNL1        0.1498
     26 C         140.4618  142.2321  164.6807 C.ar    1  UNL1        0.1140
     27 C         140.8169  143.1197  165.8367 C.ar    1  UNL1        0.0232
     28 C         140.4504  142.4018  167.1018 C.ar    1  UNL1        0.0174
     29 C         140.5711  142.7883  168.5461 C.ar    1  UNL1        0.0015
     30 C         140.1103  141.8437  169.6163 C.ar    1  UNL1        0.0001
     31 C         139.5286  140.5127  169.2421 C.ar    1  UNL1        0.0015
     32 C         139.4079  140.1262  167.7979 C.ar    1  UNL1        0.0172
     33 C         139.8688  141.0707  166.7277 C.ar    1  UNL1        0.0600
     34 N         139.8758  140.9659  165.2314 N.ar    1  UNL1       -0.3216
     35 C         139.3833  139.7995  164.4270 C.3     1  UNL1        0.1306
@<TRIPOS>BOND
     1    20    21    1
     2    21    19    1
     3    19    18    1
     4    18    16    1
     5    16    15    1
     6    15    14    1
     7    14    10    1
     8    10    11    2
     9    10    12   am
    10     1    12    1
    11     1     2    1
    12     2     3   ar
    13     3     4   ar
    14     4     5   ar
    15     5     6   ar
    16     6     7   ar
    17     7     8    1
    18     8     9    1
    19     9    22    1
    20    22    23   am
    21    23    24    2
    22    23    26    1
    23    26    27   ar
    24    27    28   ar
    25    28    29   ar
    26    29    30   ar
    27    30    31   ar
    28    31    32   ar
    29    32    33   ar
    30    33    34   ar
    31    34    35    1
    32     9     1    1
    33    34    26   ar
    34     7     2   ar
    35    33    28   ar
    36    16    17    1
    37    12    13    1
    38    22    25    1
@<TRIPOS>MOLECULE
*****
 35 38 0 0 0
SMALL
GASTEIGER

@<TRIPOS>ATOM
      1 C         140.7489  139.5428  164.6964 C.3     1  UNL1        0.1121
      2 C         140.7499  139.6805  166.1900 C.ar    1  UNL1       -0.0068
      3 C         139.6427  139.8950  167.1790 C.ar    1  UNL1       -0.0029
      4 C         139.9537  139.9956  168.6429 C.ar    1  UNL1       -0.0003
      5 C         141.3720  139.8817  169.1179 C.ar    1  UNL1       -0.0003
      6 C         142.4792  139.6672  168.1290 C.ar    1  UNL1       -0.0045
      7 C         142.1682  139.5666  166.6650 C.ar    1  UNL1       -0.0228
      8 C         143.0436  139.3584  165.4649 C.3     1  UNL1        0.0477
      9 C         142.1665  139.3437  164.2482 C.3     1  UNL1        0.0983
     10 C         139.2230  138.4378  162.9072 C.2     1  UNL1        0.2241
     11 O         140.1106  137.2287  162.8969 O.2     1  UNL1       -0.2750
     12 N         139.5421  139.5949  163.8070 N.am    1  UNL1       -0.3007
     13 H         138.9595  140.3885  163.8138 H       1  UNL1        0.1497
     14 C         138.0162  138.4900  162.0179 C.3     1  UNL1        0.1021
     15 C         137.6325  139.7766  161.3491 C.3     1  UNL1        0.0783
     16 N         137.1706  140.9416  162.1734 N.3     1  UNL1       -0.2950
     17 H         136.1747  141.0582  161.9863 H       1  UNL1        0.1233
     18 C         137.8060  142.2882  161.9912 C.3     1  UNL1        0.1011
     19 C         138.1915  143.1038  163.1896 C.3     1  UNL1        0.1593
     20 C         139.5338  143.3609  165.3991 C.3     1  UNL1        0.1742
     21 O         139.1439  142.5430  164.2036 O.3     1  UNL1       -0.3496
     22 N         142.6262  139.1618  162.8320 N.am    1  UNL1       -0.2990
     23 C         142.3316  140.2161  161.8066 C.2     1  UNL1        0.2618
     24 O         141.5774  141.4525  162.1974 O.2     1  UNL1       -0.2686
     25 H         143.1212  138.3504  162.5756 H       1  UNL1        0.1498
     26 C         142.7913  140.0343  160.3904 C.ar    1  UNL1        0.1140
     27 C         142.3698  138.9349  159.4609 C.ar    1  UNL1        0.0232
     28 C         143.0713  139.1410  158.1511 C.ar    1  UNL1        0.0174
     29 C         143.0419  138.3702  156.8647 C.ar    1  UNL1        0.0015
     30 C         143.8675  138.8260  155.6983 C.ar    1  UNL1        0.0001
     31 C         144.7225  140.0526  155.8183 C.ar    1  UNL1        0.0015
     32 C         144.7519  140.8234  157.1047 C.ar    1  UNL1        0.0172
     33 C         143.9263  140.3676  158.2711 C.ar    1  UNL1        0.0600
     34 N         143.7533  140.9197  159.6551 N.ar    1  UNL1       -0.3216
     35 C         144.4244  142.1424  160.2068 C.3     1  UNL1        0.1306
@<TRIPOS>BOND
     1    20    21    1
     2    21    19    1
     3    19    18    1
     4    18    16    1
     5    16    15    1
     6    15    14    1
     7    14    10    1
     8    10    11    2
     9    10    12   am
    10     1    12    1
    11     1     2    1
    12     2     3   ar
    13     3     4   ar
    14     4     5   ar
    15     5     6   ar
    16     6     7   ar
    17     7     8    1
    18     8     9    1
    19     9    22    1
    20    22    23   am
    21    23    24    2
    22    23    26    1
    23    26    27   ar
    24    27    28   ar
    25    28    29   ar
    26    29    30   ar
    27    30    31   ar
    28    31    32   ar
    29    32    33   ar
    30    33    34   ar
    31    34    35    1
    32     9     1    1
    33    34    26   ar
    34     7     2   ar
    35    33    28   ar
    36    16    17    1
    37    12    13    1
    38    22    25    1
@<TRIPOS>MOLECULE
*****
 35 38 0 0 0
SMALL
GASTEIGER

@<TRIPOS>ATOM
      1 C         140.6981  141.9584  165.9343 C.3     1  UNL1        0.1121
      2 C         140.4219  141.8537  167.4050 C.ar    1  UNL1       -0.0068
      3 C         140.7596  142.7540  168.5562 C.ar    1  UNL1       -0.0029
      4 C         140.3433  142.3801  169.9479 C.ar    1  UNL1       -0.0003
      5 C         139.5893  141.1058  170.1883 C.ar    1  UNL1       -0.0003
      6 C         139.2517  140.2055  169.0371 C.ar    1  UNL1       -0.0045
      7 C         139.6680  140.5794  167.6454 C.ar    1  UNL1       -0.0228
      8 C         139.4782  139.8966  166.3234 C.3     1  UNL1        0.0477
      9 C         140.1149  140.7489  165.2659 C.3     1  UNL1        0.0983
     10 C         142.9173  143.0030  165.0775 C.2     1  UNL1        0.2241
     11 O         143.6742  141.8118  165.5853 O.2     1  UNL1       -0.2750
     12 N         141.4292  143.0764  165.2520 N.am    1  UNL1       -0.3007
     13 H         140.9324  143.8583  164.9187 H       1  UNL1        0.1497
     14 C         143.6484  144.1210  164.3951 C.3     1  UNL1        0.1021
     15 C         142.8896  145.1263  163.5805 C.3     1  UNL1        0.0783
     16 N         142.9282  145.0605  162.0825 N.3     1  UNL1       -0.2950
     17 H         142.6840  145.9899  161.7405 H       1  UNL1        0.1233
     18 C         142.0524  144.0862  161.3517 C.3     1  UNL1        0.1011
     19 C         140.6244  143.9001  161.7716 C.3     1  UNL1        0.1593
     20 C         139.6211  146.2944  161.6713 C.3     1  UNL1        0.1742
     21 O         139.5692  144.8468  161.2817 O.3     1  UNL1       -0.3496
     22 N         140.1603  140.4449  163.7977 N.am    1  UNL1       -0.2990
     23 C         138.9360  140.6396  162.9532 C.2     1  UNL1        0.2618
     24 O         137.6662  141.1382  163.5770 O.2     1  UNL1       -0.2686
     25 H         140.9937  140.1177  163.3883 H       1  UNL1        0.1498
     26 C         138.9814  140.3356  161.4851 C.ar    1  UNL1        0.1140
     27 C         138.3840  141.1722  160.3926 C.ar    1  UNL1        0.0232
     28 C         138.6656  140.4953  159.0839 C.ar    1  UNL1        0.0174
     29 C         138.3193  140.8595  157.6707 C.ar    1  UNL1        0.0015
     30 C         138.7443  139.9689  156.5410 C.ar    1  UNL1        0.0001
     31 C         139.5157  138.7142  156.8246 C.ar    1  UNL1        0.0015
     32 C         139.8621  138.3500  158.2379 C.ar    1  UNL1        0.0172
     33 C         139.4370  139.2406  159.3675 C.ar    1  UNL1        0.0600
     34 N         139.6322  139.1419  160.8515 N.ar    1  UNL1       -0.3216
     35 C         140.3518  138.0424  161.5749 C.3     1  UNL1        0.1306
@<TRIPOS>BOND
     1    20    21    1
     2    21    19    1
     3    19    18    1
     4    18    16    1
     5    16    15    1
     6    15    14    1
     7    14    10    1
     8    10    11    2
     9    10    12   am
    10     1    12    1
    11     1     2    1
    12     2     3   ar
    13     3     4   ar
    14     4     5   ar
    15     5     6   ar
    16     6     7   ar
    17     7     8    1
    18     8     9    1
    19     9    22    1
    20    22    23   am
    21    23    24    2
    22    23    26    1
    23    26    27   ar
    24    27    28   ar
    25    28    29   ar
    26    29    30   ar
    27    30    31   ar
    28    31    32   ar
    29    32    33   ar
    30    33    34   ar
    31    34    35    1
    32     9     1    1
    33    34    26   ar
    34     7     2   ar
    35    33    28   ar
    36    16    17    1
    37    12    13    1
    38    22    25    1
