@<TRIPOS>MOLECULE
*****
 40 45 0 0 0
SMALL
GASTEIGER

@<TRIPOS>ATOM
      1 C         139.6548  142.8228  157.5578 C.3     1  UNL1        0.0280
      2 C         138.5570  141.9285  158.0527 C.3     1  UNL1        0.0584
      3 C         137.3750  141.6367  157.1767 C.3     1  UNL1        0.0174
      4 N         138.6413  141.3260  159.4238 N.3     1  UNL1       -0.2733
      5 C         138.6751  139.8272  159.4750 C.3     1  UNL1        0.0768
      6 C         138.7566  138.9341  160.6775 C.3     1  UNL1        0.0433
      7 C         138.8244  139.3192  162.1255 C.ar    1  UNL1       -0.0247
      8 C         138.8959  138.1107  163.0113 C.ar    1  UNL1       -0.0045
      9 C         138.9704  138.2755  164.5003 C.ar    1  UNL1        0.0011
     10 C         138.9735  139.6488  165.1038 C.ar    1  UNL1        0.0170
     11 C         138.9021  140.8573  164.2180 C.ar    1  UNL1       -0.0030
     12 C         138.8275  140.6925  162.7290 C.ar    1  UNL1       -0.0246
     13 C         138.7635  142.0199  162.0333 C.3     1  UNL1        0.0433
     14 C         138.6807  142.3017  160.5623 C.3     1  UNL1        0.0768
     15 C         139.0481  139.8136  166.5928 C.ar    1  UNL1        0.0791
     16 C         139.9566  140.7508  167.3317 C.ar    1  UNL1        0.0352
     17 C         139.6972  140.5865  168.8000 C.ar    1  UNL1        0.0804
     18 C         140.3858  141.3305  169.9056 C.3     1  UNL1        0.0540
     19 N         138.6283  139.5477  168.9684 N.ar    1  UNL1       -0.1736
     20 N         138.2271  139.0700  167.6044 N.ar    1  UNL1       -0.2492
     21 C         137.1875  138.0311  167.3045 C.3     1  UNL1        0.1537
     22 C         139.5799  144.3025  157.7922 C.3     1  UNL1        0.0665
     23 S         140.8108  145.0624  158.1888 S.3     1  UNL1       -0.0756
     24 C         142.9234  143.7664  161.1758 C.ar    1  UNL1        0.1669
     25 N         143.7127  143.2414  160.0133 N.ar    1  UNL1       -0.1282
     26 N         143.0173  143.6630  158.7528 N.ar    1  UNL1       -0.1221
     27 C         141.7983  144.4485  159.1363 C.ar    1  UNL1        0.1932
     28 N         141.7404  144.5124  160.6339 N.ar    1  UNL1       -0.2884
     29 C         140.6846  145.2013  161.4467 C.3     1  UNL1        0.1340
     30 C         142.4650  138.2258  165.2184 C.3     1  UNL1        0.0521
     31 C         142.6633  139.5639  164.5703 C.ar    1  UNL1        0.0593
     32 C         142.3283  139.7520  163.1203 C.ar    1  UNL1        0.0147
     33 C         142.5266  141.0901  162.4721 C.ar    1  UNL1        0.0028
     34 C         143.0601  142.2401  163.2740 C.ar    1  UNL1        0.0206
     35 C         143.2585  143.5783  162.6258 C.ar    1  UNL1        0.0374
     36 C         143.7919  144.7283  163.4276 C.ar    1  UNL1        0.0031
     37 C         144.1269  144.5403  164.8775 C.ar    1  UNL1        0.0016
     38 C         143.9286  143.2021  165.5257 C.ar    1  UNL1        0.0191
     39 C         143.3951  142.0521  164.7238 C.ar    1  UNL1        0.0810
     40 N         143.1967  140.7139  165.3720 N.ar    1  UNL1       -0.2497
@<TRIPOS>BOND
     1    30    31    1
     2    31    32   ar
     3    32    33   ar
     4    33    34   ar
     5    34    35   ar
     6    35    24    1
     7    24    25   ar
     8    25    26   ar
     9    26    27   ar
    10    27    23    1
    11    23    22    1
    12    22     1    1
    13     1     2    1
    14     2     3    1
    15     2     4    1
    16     4     5    1
    17     5     6    1
    18     6     7    1
    19     7     8   ar
    20     8     9   ar
    21     9    10   ar
    22    10    15    1
    23    15    16   ar
    24    16    17   ar
    25    17    18    1
    26    17    19   ar
    27    19    20   ar
    28    20    21    1
    29    10    11   ar
    30    11    12   ar
    31    12    13    1
    32    13    14    1
    33    27    28   ar
    34    28    29    1
    35    35    36   ar
    36    36    37   ar
    37    37    38   ar
    38    38    39   ar
    39    39    40   ar
    40    40    31   ar
    41    39    34   ar
    42    28    24   ar
    43    14     4    1
    44    12     7   ar
    45    20    15   ar
@<TRIPOS>MOLECULE
*****
 40 45 0 0 0
SMALL
GASTEIGER

@<TRIPOS>ATOM
      1 C         142.1635  142.0081  157.7324 C.3     1  UNL1        0.0280
      2 C         143.4184  141.8038  158.5284 C.3     1  UNL1        0.0584
      3 C         144.7071  141.4880  157.8290 C.3     1  UNL1        0.0174
      4 N         143.3843  141.9154  160.0238 N.3     1  UNL1       -0.2733
      5 C         144.4275  142.8040  160.6340 C.3     1  UNL1        0.0768
      6 C         144.6557  143.1203  162.0825 C.3     1  UNL1        0.0433
      7 C         143.8971  142.6262  163.2783 C.ar    1  UNL1       -0.0247
      8 C         144.4548  143.1891  164.5520 C.ar    1  UNL1       -0.0045
      9 C         143.8383  142.8195  165.8686 C.ar    1  UNL1        0.0011
     10 C         142.6642  141.8870  165.9116 C.ar    1  UNL1        0.0170
     11 C         142.1065  141.3241  164.6379 C.ar    1  UNL1       -0.0030
     12 C         142.7230  141.6937  163.3213 C.ar    1  UNL1       -0.0246
     13 C         142.0175  141.0250  162.1789 C.3     1  UNL1        0.0433
     14 C         142.3119  141.1237  160.7114 C.3     1  UNL1        0.0768
     15 C         142.0477  141.5174  167.2281 C.ar    1  UNL1        0.0791
     16 C         141.1879  142.4043  168.0790 C.ar    1  UNL1        0.0352
     17 C         140.7916  141.6310  169.3017 C.ar    1  UNL1        0.0804
     18 C         139.9314  142.1343  170.4228 C.3     1  UNL1        0.0540
     19 N         141.4066  140.2662  169.2065 N.ar    1  UNL1       -0.1736
     20 N         142.1829  140.1959  167.9250 N.ar    1  UNL1       -0.2492
     21 C         142.9583  139.0121  167.4276 C.3     1  UNL1        0.1537
     22 C         141.8900  143.3362  157.0909 C.3     1  UNL1        0.0665
     23 S         140.6637  144.1130  157.4683 S.3     1  UNL1       -0.0756
     24 C         139.1540  143.4543  160.9828 C.ar    1  UNL1        0.1669
     25 N         138.1448  142.7785  160.1026 N.ar    1  UNL1       -0.1282
     26 N         138.5875  142.9430  158.6788 N.ar    1  UNL1       -0.1221
     27 C         139.8703  143.7205  158.6792 C.ar    1  UNL1        0.1932
     28 N         140.2203  144.0365  160.1032 N.ar    1  UNL1       -0.2884
     29 C         141.4253  144.8006  160.5661 C.3     1  UNL1        0.1340
     30 C         138.2921  138.5529  165.7244 C.3     1  UNL1        0.0521
     31 C         138.4954  139.7981  164.9133 C.ar    1  UNL1        0.0593
     32 C         138.5441  139.7184  163.4162 C.ar    1  UNL1        0.0147
     33 C         138.7474  140.9637  162.6050 C.ar    1  UNL1        0.0028
     34 C         138.9020  142.2887  163.2911 C.ar    1  UNL1        0.0206
     35 C         139.1053  143.5340  162.4799 C.ar    1  UNL1        0.0374
     36 C         139.2599  144.8590  163.1659 C.ar    1  UNL1        0.0031
     37 C         139.2112  144.9387  164.6630 C.ar    1  UNL1        0.0016
     38 C         139.0079  143.6934  165.4741 C.ar    1  UNL1        0.0191
     39 C         138.8533  142.3684  164.7881 C.ar    1  UNL1        0.0810
     40 N         138.6500  141.1231  165.5992 N.ar    1  UNL1       -0.2497
@<TRIPOS>BOND
     1    30    31    1
     2    31    32   ar
     3    32    33   ar
     4    33    34   ar
     5    34    35   ar
     6    35    24    1
     7    24    25   ar
     8    25    26   ar
     9    26    27   ar
    10    27    23    1
    11    23    22    1
    12    22     1    1
    13     1     2    1
    14     2     3    1
    15     2     4    1
    16     4     5    1
    17     5     6    1
    18     6     7    1
    19     7     8   ar
    20     8     9   ar
    21     9    10   ar
    22    10    15    1
    23    15    16   ar
    24    16    17   ar
    25    17    18    1
    26    17    19   ar
    27    19    20   ar
    28    20    21    1
    29    10    11   ar
    30    11    12   ar
    31    12    13    1
    32    13    14    1
    33    27    28   ar
    34    28    29    1
    35    35    36   ar
    36    36    37   ar
    37    37    38   ar
    38    38    39   ar
    39    39    40   ar
    40    40    31   ar
    41    39    34   ar
    42    28    24   ar
    43    14     4    1
    44    12     7   ar
    45    20    15   ar
@<TRIPOS>MOLECULE
*****
 40 45 0 0 0
SMALL
GASTEIGER

@<TRIPOS>ATOM
      1 C         140.6153  141.9916  155.8217 C.3     1  UNL1        0.0280
      2 C         141.4500  143.0846  156.4205 C.3     1  UNL1        0.0584
      3 C         142.3057  143.9439  155.5378 C.3     1  UNL1        0.0174
      4 N         141.4290  143.3181  157.9021 N.3     1  UNL1       -0.2733
      5 C         140.9330  144.6638  158.3418 C.3     1  UNL1        0.0768
      6 C         140.7923  145.1988  159.7361 C.3     1  UNL1        0.0433
      7 C         141.1127  144.5204  161.0348 C.ar    1  UNL1       -0.0247
      8 C         140.8243  145.4132  162.2052 C.ar    1  UNL1       -0.0045
      9 C         141.0762  144.9250  163.6010 C.ar    1  UNL1        0.0011
     10 C         141.6166  143.5440  163.8265 C.ar    1  UNL1        0.0170
     11 C         141.9050  142.6511  162.6561 C.ar    1  UNL1       -0.0030
     12 C         141.6530  143.1394  161.2603 C.ar    1  UNL1       -0.0246
     13 C         142.0064  142.0957  160.2426 C.3     1  UNL1        0.0433
     14 C         141.9066  142.1753  158.7480 C.3     1  UNL1        0.0768
     15 C         141.8685  143.0558  165.2223 C.ar    1  UNL1        0.0791
     16 C         140.8214  142.7504  166.2519 C.ar    1  UNL1        0.0352
     17 C         141.5175  142.2931  167.4994 C.ar    1  UNL1        0.0804
     18 C         140.8529  141.8847  168.7807 C.3     1  UNL1        0.0540
     19 N         142.9949  142.3159  167.2408 N.ar    1  UNL1       -0.1736
     20 N         143.2118  142.7873  165.8334 N.ar    1  UNL1       -0.2492
     21 C         144.5390  142.9598  165.1561 C.3     1  UNL1        0.1537
     22 C         141.1697  140.6027  155.7051 C.3     1  UNL1        0.0665
     23 S         140.3780  139.4340  156.2124 S.3     1  UNL1       -0.0756
     24 C         138.7052  139.5583  159.7126 C.ar    1  UNL1        0.1669
     25 N         137.6051  140.0965  158.8464 N.ar    1  UNL1       -0.1282
     26 N         138.0979  140.1154  157.4297 N.ar    1  UNL1       -0.1221
     27 C         139.5025  139.5890  157.4204 C.ar    1  UNL1        0.1932
     28 N         139.8777  139.2446  158.8314 N.ar    1  UNL1       -0.2884
     29 C         141.1945  138.6849  159.2818 C.3     1  UNL1        0.1340
     30 C         137.6601  144.0725  164.7900 C.3     1  UNL1        0.0521
     31 C         137.9059  142.8962  163.8923 C.ar    1  UNL1        0.0593
     32 C         137.9676  143.0872  162.4058 C.ar    1  UNL1        0.0147
     33 C         138.2135  141.9109  161.5080 C.ar    1  UNL1        0.0028
     34 C         138.3976  140.5436  162.0969 C.ar    1  UNL1        0.0206
     35 C         138.6434  139.3673  161.1991 C.ar    1  UNL1        0.0374
     36 C         138.8275  138.0000  161.7879 C.ar    1  UNL1        0.0031
     37 C         138.7658  137.8090  163.2744 C.ar    1  UNL1        0.0016
     38 C         138.5199  138.9854  164.1722 C.ar    1  UNL1        0.0191
     39 C         138.3358  140.3527  163.5833 C.ar    1  UNL1        0.0810
     40 N         138.0900  141.5290  164.4811 N.ar    1  UNL1       -0.2497
@<TRIPOS>BOND
     1    30    31    1
     2    31    32   ar
     3    32    33   ar
     4    33    34   ar
     5    34    35   ar
     6    35    24    1
     7    24    25   ar
     8    25    26   ar
     9    26    27   ar
    10    27    23    1
    11    23    22    1
    12    22     1    1
    13     1     2    1
    14     2     3    1
    15     2     4    1
    16     4     5    1
    17     5     6    1
    18     6     7    1
    19     7     8   ar
    20     8     9   ar
    21     9    10   ar
    22    10    15    1
    23    15    16   ar
    24    16    17   ar
    25    17    18    1
    26    17    19   ar
    27    19    20   ar
    28    20    21    1
    29    10    11   ar
    30    11    12   ar
    31    12    13    1
    32    13    14    1
    33    27    28   ar
    34    28    29    1
    35    35    36   ar
    36    36    37   ar
    37    37    38   ar
    38    38    39   ar
    39    39    40   ar
    40    40    31   ar
    41    39    34   ar
    42    28    24   ar
    43    14     4    1
    44    12     7   ar
    45    20    15   ar
@<TRIPOS>MOLECULE
*****
 40 45 0 0 0
SMALL
GASTEIGER

@<TRIPOS>ATOM
      1 C         140.5831  140.4861  156.7917 C.3     1  UNL1        0.0280
      2 C         141.4407  139.6369  157.6825 C.3     1  UNL1        0.0584
      3 C         142.6667  138.9716  157.1310 C.3     1  UNL1        0.0174
      4 N         141.0721  139.4531  159.1248 N.3     1  UNL1       -0.2733
      5 C         139.9584  138.4848  159.3936 C.3     1  UNL1        0.0768
      6 C         139.3635  138.0861  160.7117 C.3     1  UNL1        0.0433
      7 C         139.7353  138.5571  162.0863 C.ar    1  UNL1       -0.0247
      8 C         138.8868  137.9048  163.1373 C.ar    1  UNL1       -0.0045
      9 C         139.0968  138.2386  164.5845 C.ar    1  UNL1        0.0011
     10 C         140.1554  139.2247  164.9808 C.ar    1  UNL1        0.0170
     11 C         141.0040  139.8770  163.9298 C.ar    1  UNL1       -0.0030
     12 C         140.7939  139.5432  162.4826 C.ar    1  UNL1       -0.0246
     13 C         141.7421  140.3018  161.6020 C.3     1  UNL1        0.0433
     14 C         141.8658  140.2616  160.1076 C.3     1  UNL1        0.0768
     15 C         140.3655  139.5585  166.4280 C.ar    1  UNL1        0.0791
     16 C         139.3210  140.0693  167.3756 C.ar    1  UNL1        0.0352
     17 C         139.9669  140.2666  168.7150 C.ar    1  UNL1        0.0804
     18 C         139.2882  140.7653  169.9562 C.3     1  UNL1        0.0540
     19 N         141.4107  139.8778  168.5951 N.ar    1  UNL1       -0.1736
     20 N         141.6571  139.4401  167.1817 N.ar    1  UNL1       -0.2492
     21 C         142.9652  138.9671  166.6205 C.3     1  UNL1        0.1537
     22 C         140.7400  141.9778  156.7997 C.3     1  UNL1        0.0665
     23 S         139.6457  142.8441  157.3494 S.3     1  UNL1       -0.0756
     24 C         139.6874  144.0047  161.0529 C.ar    1  UNL1        0.1669
     25 N         140.4785  145.0979  160.3977 N.ar    1  UNL1       -0.1282
     26 N         140.5591  144.7962  158.9305 N.ar    1  UNL1       -0.1221
     27 C         139.8179  143.5165  158.6791 C.ar    1  UNL1        0.1932
     28 N         139.2792  143.0275  159.9908 N.ar    1  UNL1       -0.2884
     29 C         138.4737  141.7800  160.2030 C.3     1  UNL1        0.1340
     30 C         143.6683  142.5395  166.4619 C.3     1  UNL1        0.0521
     31 C         142.5917  142.8811  165.4748 C.ar    1  UNL1        0.0593
     32 C         142.9173  142.9797  164.0139 C.ar    1  UNL1        0.0147
     33 C         141.8407  143.3214  163.0269 C.ar    1  UNL1        0.0028
     34 C         140.4384  143.5645  163.5009 C.ar    1  UNL1        0.0206
     35 C         139.3618  143.9062  162.5139 C.ar    1  UNL1        0.0374
     36 C         137.9596  144.1494  162.9878 C.ar    1  UNL1        0.0031
     37 C         137.6340  144.0509  164.4487 C.ar    1  UNL1        0.0016
     38 C         138.7106  143.7092  165.4357 C.ar    1  UNL1        0.0191
     39 C         140.1129  143.4660  164.9617 C.ar    1  UNL1        0.0810
     40 N         141.1895  143.1243  165.9487 N.ar    1  UNL1       -0.2497
@<TRIPOS>BOND
     1    30    31    1
     2    31    32   ar
     3    32    33   ar
     4    33    34   ar
     5    34    35   ar
     6    35    24    1
     7    24    25   ar
     8    25    26   ar
     9    26    27   ar
    10    27    23    1
    11    23    22    1
    12    22     1    1
    13     1     2    1
    14     2     3    1
    15     2     4    1
    16     4     5    1
    17     5     6    1
    18     6     7    1
    19     7     8   ar
    20     8     9   ar
    21     9    10   ar
    22    10    15    1
    23    15    16   ar
    24    16    17   ar
    25    17    18    1
    26    17    19   ar
    27    19    20   ar
    28    20    21    1
    29    10    11   ar
    30    11    12   ar
    31    12    13    1
    32    13    14    1
    33    27    28   ar
    34    28    29    1
    35    35    36   ar
    36    36    37   ar
    37    37    38   ar
    38    38    39   ar
    39    39    40   ar
    40    40    31   ar
    41    39    34   ar
    42    28    24   ar
    43    14     4    1
    44    12     7   ar
    45    20    15   ar
@<TRIPOS>MOLECULE
*****
 40 45 0 0 0
SMALL
GASTEIGER

@<TRIPOS>ATOM
      1 C         141.5295  138.5770  157.4148 C.3     1  UNL1        0.0280
      2 C         140.1665  139.1244  157.7193 C.3     1  UNL1        0.0584
      3 C         139.1697  139.3122  156.6144 C.3     1  UNL1        0.0174
      4 N         139.8005  139.4840  159.1288 N.3     1  UNL1       -0.2733
      5 C         138.5784  140.3396  159.2857 C.3     1  UNL1        0.0768
      6 C         137.9589  140.8630  160.5476 C.3     1  UNL1        0.0433
      7 C         138.4085  140.6601  161.9641 C.ar    1  UNL1       -0.0247
      8 C         137.5014  141.3598  162.9325 C.ar    1  UNL1       -0.0045
      9 C         137.7744  141.2831  164.4054 C.ar    1  UNL1        0.0011
     10 C         138.9545  140.5067  164.9101 C.ar    1  UNL1        0.0170
     11 C         139.8616  139.8070  163.9417 C.ar    1  UNL1       -0.0030
     12 C         139.5886  139.8837  162.4688 C.ar    1  UNL1       -0.0246
     13 C         140.6105  139.1184  161.6814 C.3     1  UNL1        0.0433
     14 C         140.7048  138.9406  160.1949 C.3     1  UNL1        0.0768
     15 C         139.2275  140.4299  166.3830 C.ar    1  UNL1        0.0791
     16 C         140.1497  141.3249  167.1566 C.ar    1  UNL1        0.0352
     17 C         140.1184  140.8928  168.5927 C.ar    1  UNL1        0.0804
     18 C         140.8927  141.5138  169.7173 C.3     1  UNL1        0.0540
     19 N         139.1767  139.7308  168.7066 N.ar    1  UNL1       -0.1736
     20 N         138.6261  139.4446  167.3410 N.ar    1  UNL1       -0.2492
     21 C         137.6462  138.3632  166.9943 C.3     1  UNL1        0.1537
     22 C         142.4842  139.3683  156.5707 C.3     1  UNL1        0.0665
     23 S         143.7766  139.8551  157.1561 S.3     1  UNL1       -0.0756
     24 C         143.8560  141.9785  160.4041 C.ar    1  UNL1        0.1669
     25 N         143.6446  143.0420  159.3677 N.ar    1  UNL1       -0.1282
     26 N         143.5891  142.3760  158.0248 N.ar    1  UNL1       -0.1221
     27 C         143.7663  140.9009  158.2313 C.ar    1  UNL1        0.1932
     28 N         143.9312  140.6552  159.7018 N.ar    1  UNL1       -0.2884
     29 C         144.1354  139.3205  160.3552 C.3     1  UNL1        0.1340
     30 C         139.3267  144.4310  164.9561 C.3     1  UNL1        0.0521
     31 C         140.4879  143.8731  164.1879 C.ar    1  UNL1        0.0593
     32 C         140.3720  143.6521  162.7088 C.ar    1  UNL1        0.0147
     33 C         141.5333  143.0942  161.9405 C.ar    1  UNL1        0.0028
     34 C         142.8105  142.7573  162.6515 C.ar    1  UNL1        0.0206
     35 C         143.9718  142.1994  161.8832 C.ar    1  UNL1        0.0374
     36 C         145.2490  141.8625  162.5941 C.ar    1  UNL1        0.0031
     37 C         145.3649  142.0835  164.0732 C.ar    1  UNL1        0.0016
     38 C         144.2035  142.6414  164.8415 C.ar    1  UNL1        0.0191
     39 C         142.9264  142.9783  164.1305 C.ar    1  UNL1        0.0810
     40 N         141.7650  143.5362  164.8988 N.ar    1  UNL1       -0.2497
@<TRIPOS>BOND
     1    30    31    1
     2    31    32   ar
     3    32    33   ar
     4    33    34   ar
     5    34    35   ar
     6    35    24    1
     7    24    25   ar
     8    25    26   ar
     9    26    27   ar
    10    27    23    1
    11    23    22    1
    12    22     1    1
    13     1     2    1
    14     2     3    1
    15     2     4    1
    16     4     5    1
    17     5     6    1
    18     6     7    1
    19     7     8   ar
    20     8     9   ar
    21     9    10   ar
    22    10    15    1
    23    15    16   ar
    24    16    17   ar
    25    17    18    1
    26    17    19   ar
    27    19    20   ar
    28    20    21    1
    29    10    11   ar
    30    11    12   ar
    31    12    13    1
    32    13    14    1
    33    27    28   ar
    34    28    29    1
    35    35    36   ar
    36    36    37   ar
    37    37    38   ar
    38    38    39   ar
    39    39    40   ar
    40    40    31   ar
    41    39    34   ar
    42    28    24   ar
    43    14     4    1
    44    12     7   ar
    45    20    15   ar
@<TRIPOS>MOLECULE
*****
 40 45 0 0 0
SMALL
GASTEIGER

@<TRIPOS>ATOM
      1 C         142.2529  140.8026  157.2321 C.3     1  UNL1        0.0280
      2 C         142.5286  139.5336  157.9828 C.3     1  UNL1        0.0584
      3 C         142.9321  138.2949  157.2394 C.3     1  UNL1        0.0174
      4 N         142.4008  139.5034  159.4771 N.3     1  UNL1       -0.2733
      5 C         142.5509  138.1545  160.1159 C.3     1  UNL1        0.0768
      6 C         142.4770  137.7951  161.5704 C.3     1  UNL1        0.0433
      7 C         142.2349  138.6957  162.7451 C.ar    1  UNL1       -0.0247
      8 C         142.2383  137.9282  164.0340 C.ar    1  UNL1       -0.0045
      9 C         142.0135  138.6432  165.3333 C.ar    1  UNL1        0.0011
     10 C         141.7853  140.1258  165.3439 C.ar    1  UNL1        0.0170
     11 C         141.7819  140.8933  164.0550 C.ar    1  UNL1       -0.0030
     12 C         142.0067  140.1782  162.7557 C.ar    1  UNL1       -0.0246
     13 C         141.9644  141.1263  161.5940 C.3     1  UNL1        0.0433
     14 C         142.1397  140.8258  160.1349 C.3     1  UNL1        0.0768
     15 C         141.5605  140.8408  166.6432 C.ar    1  UNL1        0.0791
     16 C         140.4810  140.5395  167.6400 C.ar    1  UNL1        0.0352
     17 C         140.6291  141.4952  168.7867 C.ar    1  UNL1        0.0804
     18 C         139.7589  141.5494  170.0072 C.3     1  UNL1        0.0540
     19 N         141.8002  142.3870  168.4985 N.ar    1  UNL1       -0.1736
     20 N         142.3759  141.9826  167.1737 N.ar    1  UNL1       -0.2492
     21 C         143.5591  142.6099  166.4981 C.3     1  UNL1        0.1537
     22 C         141.1910  140.8320  156.1730 C.3     1  UNL1        0.0665
     23 S         139.8421  141.4120  156.4793 S.3     1  UNL1       -0.0756
     24 C         138.3977  141.1816  160.0745 C.ar    1  UNL1        0.1669
     25 N         137.8142  139.9497  159.4483 N.ar    1  UNL1       -0.1282
     26 N         138.2843  139.8861  158.0252 N.ar    1  UNL1       -0.1221
     27 C         139.1583  141.0787  157.7720 C.ar    1  UNL1        0.1932
     28 N         139.2283  141.8793  159.0386 N.ar    1  UNL1       -0.2884
     29 C         139.9945  143.1538  159.2346 C.3     1  UNL1        0.1340
     30 C         138.4919  137.6784  165.9880 C.3     1  UNL1        0.0521
     31 C         138.4158  138.6677  164.8631 C.ar    1  UNL1        0.0593
     32 C         138.6261  138.2134  163.4491 C.ar    1  UNL1        0.0147
     33 C         138.5500  139.2028  162.3242 C.ar    1  UNL1        0.0028
     34 C         138.2635  140.6465  162.6134 C.ar    1  UNL1        0.0206
     35 C         138.1874  141.6359  161.4885 C.ar    1  UNL1        0.0374
     36 C         137.9010  143.0797  161.7776 C.ar    1  UNL1        0.0031
     37 C         137.6907  143.5340  163.1916 C.ar    1  UNL1        0.0016
     38 C         137.7668  142.5446  164.3165 C.ar    1  UNL1        0.0191
     39 C         138.0532  141.1009  164.0273 C.ar    1  UNL1        0.0810
     40 N         138.1294  140.1115  165.1522 N.ar    1  UNL1       -0.2497
@<TRIPOS>BOND
     1    30    31    1
     2    31    32   ar
     3    32    33   ar
     4    33    34   ar
     5    34    35   ar
     6    35    24    1
     7    24    25   ar
     8    25    26   ar
     9    26    27   ar
    10    27    23    1
    11    23    22    1
    12    22     1    1
    13     1     2    1
    14     2     3    1
    15     2     4    1
    16     4     5    1
    17     5     6    1
    18     6     7    1
    19     7     8   ar
    20     8     9   ar
    21     9    10   ar
    22    10    15    1
    23    15    16   ar
    24    16    17   ar
    25    17    18    1
    26    17    19   ar
    27    19    20   ar
    28    20    21    1
    29    10    11   ar
    30    11    12   ar
    31    12    13    1
    32    13    14    1
    33    27    28   ar
    34    28    29    1
    35    35    36   ar
    36    36    37   ar
    37    37    38   ar
    38    38    39   ar
    39    39    40   ar
    40    40    31   ar
    41    39    34   ar
    42    28    24   ar
    43    14     4    1
    44    12     7   ar
    45    20    15   ar
@<TRIPOS>MOLECULE
*****
 40 45 0 0 0
SMALL
GASTEIGER

@<TRIPOS>ATOM
      1 C         140.4789  139.9032  157.2230 C.3     1  UNL1        0.0280
      2 C         141.2286  138.7930  157.8978 C.3     1  UNL1        0.0584
      3 C         141.5787  137.5512  157.1328 C.3     1  UNL1        0.0174
      4 N         141.6281  138.9247  159.3376 N.3     1  UNL1       -0.2733
      5 C         143.1034  138.9946  159.5997 C.3     1  UNL1        0.0768
      6 C         143.8146  139.1262  160.9139 C.3     1  UNL1        0.0433
      7 C         143.2261  139.2203  162.2904 C.ar    1  UNL1       -0.0247
      8 C         144.2947  139.3415  163.3361 C.ar    1  UNL1       -0.0045
      9 C         143.9183  139.4484  164.7842 C.ar    1  UNL1        0.0011
     10 C         142.4734  139.4343  165.1866 C.ar    1  UNL1        0.0170
     11 C         141.4048  139.3131  164.1408 C.ar    1  UNL1       -0.0030
     12 C         141.7812  139.2061  162.6928 C.ar    1  UNL1       -0.0246
     13 C         140.5678  139.0943  161.8180 C.3     1  UNL1        0.0433
     14 C         140.4998  138.9691  160.3248 C.3     1  UNL1        0.0768
     15 C         142.0970  139.5412  166.6346 C.ar    1  UNL1        0.0791
     16 C         142.9704  139.1860  167.8012 C.ar    1  UNL1        0.0352
     17 C         142.1943  139.4474  169.0579 C.ar    1  UNL1        0.0804
     18 C         142.6851  139.2302  170.4586 C.3     1  UNL1        0.0540
     19 N         140.8412  139.9643  168.6680 N.ar    1  UNL1       -0.1736
     20 N         140.7810  140.0223  167.1703 N.ar    1  UNL1       -0.2492
     21 C         139.6105  140.4808  166.3521 C.3     1  UNL1        0.1537
     22 C         138.9947  139.7984  157.0321 C.3     1  UNL1        0.0665
     23 S         138.1006  140.9185  157.4746 S.3     1  UNL1       -0.0756
     24 C         139.0278  143.0033  160.6145 C.ar    1  UNL1        0.1669
     25 N         139.6259  143.8411  159.5234 N.ar    1  UNL1       -0.1282
     26 N         139.3513  143.1621  158.2143 N.ar    1  UNL1       -0.1221
     27 C         138.5836  141.9047  158.4965 C.ar    1  UNL1        0.1932
     28 N         138.3837  141.8066  159.9799 N.ar    1  UNL1       -0.2884
     29 C         137.6657  140.7051  160.7018 C.3     1  UNL1        0.1340
     30 C         144.2612  143.0097  165.0712 C.3     1  UNL1        0.0521
     31 C         142.9628  143.0844  164.3240 C.ar    1  UNL1        0.0593
     32 C         142.9235  142.7790  162.8560 C.ar    1  UNL1        0.0147
     33 C         141.6249  142.8538  162.1088 C.ar    1  UNL1        0.0028
     34 C         140.3657  143.2340  162.8298 C.ar    1  UNL1        0.0206
     35 C         139.0671  143.3087  162.0826 C.ar    1  UNL1        0.0374
     36 C         137.8078  143.6889  162.8035 C.ar    1  UNL1        0.0031
     37 C         137.8471  143.9943  164.2715 C.ar    1  UNL1        0.0016
     38 C         139.1456  143.9195  165.0187 C.ar    1  UNL1        0.0191
     39 C         140.4049  143.5393  164.2977 C.ar    1  UNL1        0.0810
     40 N         141.7035  143.4646  165.0449 N.ar    1  UNL1       -0.2497
@<TRIPOS>BOND
     1    30    31    1
     2    31    32   ar
     3    32    33   ar
     4    33    34   ar
     5    34    35   ar
     6    35    24    1
     7    24    25   ar
     8    25    26   ar
     9    26    27   ar
    10    27    23    1
    11    23    22    1
    12    22     1    1
    13     1     2    1
    14     2     3    1
    15     2     4    1
    16     4     5    1
    17     5     6    1
    18     6     7    1
    19     7     8   ar
    20     8     9   ar
    21     9    10   ar
    22    10    15    1
    23    15    16   ar
    24    16    17   ar
    25    17    18    1
    26    17    19   ar
    27    19    20   ar
    28    20    21    1
    29    10    11   ar
    30    11    12   ar
    31    12    13    1
    32    13    14    1
    33    27    28   ar
    34    28    29    1
    35    35    36   ar
    36    36    37   ar
    37    37    38   ar
    38    38    39   ar
    39    39    40   ar
    40    40    31   ar
    41    39    34   ar
    42    28    24   ar
    43    14     4    1
    44    12     7   ar
    45    20    15   ar
@<TRIPOS>MOLECULE
*****
 40 45 0 0 0
SMALL
GASTEIGER

@<TRIPOS>ATOM
      1 C         142.7286  142.9100  157.4258 C.3     1  UNL1        0.0280
      2 C         143.8792  142.2855  158.1580 C.3     1  UNL1        0.0584
      3 C         145.2479  142.2864  157.5445 C.3     1  UNL1        0.0174
      4 N         143.6609  141.6601  159.5038 N.3     1  UNL1       -0.2733
      5 C         143.7201  140.1617  159.5424 C.3     1  UNL1        0.0768
      6 C         143.5453  139.2489  160.7199 C.3     1  UNL1        0.0433
      7 C         143.2682  139.6090  162.1493 C.ar    1  UNL1       -0.0247
      8 C         143.1646  138.3864  163.0123 C.ar    1  UNL1       -0.0045
      9 C         142.8902  138.5256  164.4803 C.ar    1  UNL1        0.0011
     10 C         142.7194  139.8874  165.0856 C.ar    1  UNL1        0.0170
     11 C         142.8230  141.1100  164.2227 C.ar    1  UNL1       -0.0030
     12 C         143.0974  140.9708  162.7546 C.ar    1  UNL1       -0.0246
     13 C         143.1616  142.3089  162.0798 C.3     1  UNL1        0.0433
     14 C         143.4124  142.6156  160.6330 C.3     1  UNL1        0.0768
     15 C         142.4450  140.0267  166.5537 C.ar    1  UNL1        0.0791
     16 C         142.8675  139.0653  167.6247 C.ar    1  UNL1        0.0352
     17 C         142.3835  139.5962  168.9414 C.ar    1  UNL1        0.0804
     18 C         142.5857  138.9508  170.2803 C.3     1  UNL1        0.0540
     19 N         141.6619  140.8858  168.6842 N.ar    1  UNL1       -0.1736
     20 N         141.6999  141.1519  167.2085 N.ar    1  UNL1       -0.2492
     21 C         141.0984  142.3354  166.5103 C.3     1  UNL1        0.1537
     22 C         142.5915  144.4029  157.3779 C.3     1  UNL1        0.0665
     23 S         141.3110  145.0528  157.8114 S.3     1  UNL1       -0.0756
     24 C         139.1317  143.4455  160.5921 C.ar    1  UNL1        0.1669
     25 N         138.5450  142.8156  159.3637 N.ar    1  UNL1       -0.1282
     26 N         139.2901  143.3411  158.1725 N.ar    1  UNL1       -0.1221
     27 C         140.3371  144.2957  158.6647 C.ar    1  UNL1        0.1932
     28 N         140.2392  144.3602  160.1602 N.ar    1  UNL1       -0.2884
     29 C         141.0982  145.1933  161.0648 C.3     1  UNL1        0.1340
     30 C         139.3636  137.7755  164.4713 C.3     1  UNL1        0.0521
     31 C         139.1949  139.1324  163.8546 C.ar    1  UNL1        0.0593
     32 C         139.6380  139.3747  162.4421 C.ar    1  UNL1        0.0147
     33 C         139.4692  140.7316  161.8254 C.ar    1  UNL1        0.0028
     34 C         138.8574  141.8463  162.6213 C.ar    1  UNL1        0.0206
     35 C         138.6886  143.2032  162.0046 C.ar    1  UNL1        0.0374
     36 C         138.0768  144.3179  162.8003 C.ar    1  UNL1        0.0031
     37 C         137.6337  144.0756  164.2128 C.ar    1  UNL1        0.0016
     38 C         137.8024  142.7186  164.8295 C.ar    1  UNL1        0.0191
     39 C         138.4143  141.6040  164.0336 C.ar    1  UNL1        0.0810
     40 N         138.5830  140.2471  164.6503 N.ar    1  UNL1       -0.2497
@<TRIPOS>BOND
     1    30    31    1
     2    31    32   ar
     3    32    33   ar
     4    33    34   ar
     5    34    35   ar
     6    35    24    1
     7    24    25   ar
     8    25    26   ar
     9    26    27   ar
    10    27    23    1
    11    23    22    1
    12    22     1    1
    13     1     2    1
    14     2     3    1
    15     2     4    1
    16     4     5    1
    17     5     6    1
    18     6     7    1
    19     7     8   ar
    20     8     9   ar
    21     9    10   ar
    22    10    15    1
    23    15    16   ar
    24    16    17   ar
    25    17    18    1
    26    17    19   ar
    27    19    20   ar
    28    20    21    1
    29    10    11   ar
    30    11    12   ar
    31    12    13    1
    32    13    14    1
    33    27    28   ar
    34    28    29    1
    35    35    36   ar
    36    36    37   ar
    37    37    38   ar
    38    38    39   ar
    39    39    40   ar
    40    40    31   ar
    41    39    34   ar
    42    28    24   ar
    43    14     4    1
    44    12     7   ar
    45    20    15   ar
@<TRIPOS>MOLECULE
*****
 40 45 0 0 0
SMALL
GASTEIGER

@<TRIPOS>ATOM
      1 C         143.7760  140.0544  157.6633 C.3     1  UNL1        0.0280
      2 C         144.1031  141.2972  158.4369 C.3     1  UNL1        0.0584
      3 C         144.9848  142.3481  157.8302 C.3     1  UNL1        0.0174
      4 N         143.5484  141.4890  159.8173 N.3     1  UNL1       -0.2733
      5 C         143.0589  142.8708  160.1357 C.3     1  UNL1        0.0768
      6 C         142.4567  143.3786  161.4123 C.3     1  UNL1        0.0433
      7 C         142.1952  142.6301  162.6855 C.ar    1  UNL1       -0.0247
      8 C         141.5767  143.5169  163.7254 C.ar    1  UNL1       -0.0045
      9 C         141.2344  142.9626  165.0765 C.ar    1  UNL1        0.0011
     10 C         141.5105  141.5214  165.3879 C.ar    1  UNL1        0.0170
     11 C         142.1290  140.6346  164.3480 C.ar    1  UNL1       -0.0030
     12 C         142.4713  141.1890  162.9969 C.ar    1  UNL1       -0.0246
     13 C         143.0771  140.1404  162.1118 C.3     1  UNL1        0.0433
     14 C         143.5565  140.2740  160.6967 C.3     1  UNL1        0.0768
     15 C         141.1682  140.9671  166.7390 C.ar    1  UNL1        0.0791
     16 C         140.0754  141.4572  167.6420 C.ar    1  UNL1        0.0352
     17 C         140.0904  140.6183  168.8854 C.ar    1  UNL1        0.0804
     18 C         139.1656  140.7627  170.0576 C.3     1  UNL1        0.0540
     19 N         141.1925  139.6097  168.7508 N.ar    1  UNL1       -0.1736
     20 N         141.8586  139.8252  167.4243 N.ar    1  UNL1       -0.2492
     21 C         143.0126  139.0373  166.8787 C.3     1  UNL1        0.1537
     22 C         142.8183  140.1187  156.5106 C.3     1  UNL1        0.0665
     23 S         141.3647  139.8173  156.7255 S.3     1  UNL1       -0.0756
     24 C         139.7903  140.2893  160.2417 C.ar    1  UNL1        0.1669
     25 N         140.1604  138.8363  160.2826 N.ar    1  UNL1       -0.1282
     26 N         140.7952  138.4826  158.9703 N.ar    1  UNL1       -0.1221
     27 C         140.8174  139.7171  158.1185 C.ar    1  UNL1        0.1932
     28 N         140.1964  140.8337  158.9043 N.ar    1  UNL1       -0.2884
     29 C         140.0135  142.2466  158.4349 C.3     1  UNL1        0.1340
     30 C         138.0435  138.4243  166.6230 C.3     1  UNL1        0.0521
     31 C         138.3151  139.0838  165.3034 C.ar    1  UNL1        0.0593
     32 C         138.9754  138.3108  164.2004 C.ar    1  UNL1        0.0147
     33 C         139.2470  138.9703  162.8808 C.ar    1  UNL1        0.0028
     34 C         138.8584  140.4028  162.6643 C.ar    1  UNL1        0.0206
     35 C         139.1300  141.0623  161.3447 C.ar    1  UNL1        0.0374
     36 C         138.7414  142.4948  161.1280 C.ar    1  UNL1        0.0031
     37 C         138.0812  143.2678  162.2310 C.ar    1  UNL1        0.0016
     38 C         137.8095  142.6083  163.5506 C.ar    1  UNL1        0.0191
     39 C         138.1982  141.1758  163.7672 C.ar    1  UNL1        0.0810
     40 N         137.9265  140.5163  165.0868 N.ar    1  UNL1       -0.2497
@<TRIPOS>BOND
     1    30    31    1
     2    31    32   ar
     3    32    33   ar
     4    33    34   ar
     5    34    35   ar
     6    35    24    1
     7    24    25   ar
     8    25    26   ar
     9    26    27   ar
    10    27    23    1
    11    23    22    1
    12    22     1    1
    13     1     2    1
    14     2     3    1
    15     2     4    1
    16     4     5    1
    17     5     6    1
    18     6     7    1
    19     7     8   ar
    20     8     9   ar
    21     9    10   ar
    22    10    15    1
    23    15    16   ar
    24    16    17   ar
    25    17    18    1
    26    17    19   ar
    27    19    20   ar
    28    20    21    1
    29    10    11   ar
    30    11    12   ar
    31    12    13    1
    32    13    14    1
    33    27    28   ar
    34    28    29    1
    35    35    36   ar
    36    36    37   ar
    37    37    38   ar
    38    38    39   ar
    39    39    40   ar
    40    40    31   ar
    41    39    34   ar
    42    28    24   ar
    43    14     4    1
    44    12     7   ar
    45    20    15   ar
