@<TRIPOS>MOLECULE
*****
 32 35 0 0 0
SMALL
GASTEIGER

@<TRIPOS>ATOM
      1 C         142.1772  140.8477  164.5056 C.ar    1  UNL1        0.1535
      2 C         142.3675  140.2329  163.1507 C.ar    1  UNL1        0.0377
      3 C         141.9740  140.9942  161.9197 C.ar    1  UNL1        0.0239
      4 C         141.3902  142.3704  162.0435 C.ar    1  UNL1        0.1059
      5 N         141.1999  142.9852  163.3983 N.ar    1  UNL1       -0.1467
      6 N         141.5934  142.2239  164.6294 N.ar    1  UNL1       -0.1329
      7 C         140.9968  143.1317  160.8123 C.ar    1  UNL1        0.0532
      8 C         140.0398  142.5252  159.8293 C.ar    1  UNL1        0.0061
      9 C         139.6463  143.2865  158.5982 C.ar    1  UNL1        0.0194
     10 C         140.2098  144.6543  158.3501 C.ar    1  UNL1        0.0859
     11 C         141.1669  145.2608  159.3332 C.ar    1  UNL1        0.0558
     12 C         141.5603  144.4995  160.5642 C.ar    1  UNL1        0.1366
     13 O         142.5173  145.1060  161.5473 O.3     1  UNL1       -0.5054
     14 H         142.8694  145.9604  161.3924 H       1  UNL1        0.2922
     15 N         139.8164  145.4156  157.1190 N.ar    1  UNL1       -0.2280
     16 C         139.6016  144.8335  155.7534 C.ar    1  UNL1        0.1020
     17 C         139.2211  145.9508  154.8278 C.ar    1  UNL1        0.0431
     18 C         139.2008  147.2235  155.6214 C.ar    1  UNL1        0.1221
     19 N         139.5687  146.8928  157.0374 N.ar    1  UNL1       -0.1635
     20 C         143.5456  138.9509  165.6367 C.3     1  UNL1        0.1135
     21 N         142.5707  140.0864  165.7367 N.pl3   1  UNL1       -0.2916
     22 C         141.9892  140.4608  167.0678 C.3     1  UNL1        0.0768
     23 C         142.8047  141.2526  168.0465 C.3     1  UNL1        0.0342
     24 C         142.2233  141.6270  169.3776 C.3     1  UNL1        0.0435
     25 C         142.1138  142.2175  170.7520 C.3     1  UNL1        0.0158
     26 C         143.5822  142.2496  169.5025 C.3     1  UNL1        0.0158
     27 N         140.8263  141.2094  169.7300 N.3     1  UNL1       -0.3015
     28 C         140.0108  140.4175  168.7513 C.3     1  UNL1        0.0435
     29 C         138.8538  139.6648  168.1640 C.3     1  UNL1        0.0158
     30 C         139.0276  140.5304  169.8784 C.3     1  UNL1        0.0158
     31 C         140.5922  140.0432  167.4202 C.3     1  UNL1        0.0342
     32 H         140.3041  142.0636  169.9253 H       1  UNL1        0.1231
@<TRIPOS>BOND
     1    20    21    1
     2    21     1    1
     3     1     2   ar
     4     2     3   ar
     5     3     4   ar
     6     4     7    1
     7     7     8   ar
     8     8     9   ar
     9     9    10   ar
    10    10    15    1
    11    15    16   ar
    12    16    17   ar
    13    17    18   ar
    14    18    19   ar
    15    10    11   ar
    16    11    12   ar
    17    12    13    1
    18     4     5   ar
    19     5     6   ar
    20    21    22    1
    21    22    23    1
    22    23    24    1
    23    24    25    1
    24    24    26    1
    25    24    27    1
    26    27    28    1
    27    28    29    1
    28    28    30    1
    29    28    31    1
    30     6     1   ar
    31    31    22    1
    32    12     7   ar
    33    19    15   ar
    34    13    14    1
    35    27    32    1
@<TRIPOS>MOLECULE
*****
 32 35 0 0 0
SMALL
GASTEIGER

@<TRIPOS>ATOM
      1 C         140.1698  144.9149  157.3664 C.ar    1  UNL1        0.1535
      2 C         139.4577  143.7574  158.0014 C.ar    1  UNL1        0.0377
      3 C         139.7434  143.3925  159.4280 C.ar    1  UNL1        0.0239
      4 C         140.7411  144.1849  160.2196 C.ar    1  UNL1        0.1059
      5 N         141.4532  145.3424  159.5846 N.ar    1  UNL1       -0.1467
      6 N         141.1675  145.7074  158.1580 N.ar    1  UNL1       -0.1329
      7 C         141.0268  143.8199  161.6462 C.ar    1  UNL1        0.0532
      8 C         141.3607  142.4023  162.0052 C.ar    1  UNL1        0.0061
      9 C         141.6463  142.0372  163.4318 C.ar    1  UNL1        0.0194
     10 C         141.5982  143.0899  164.4994 C.ar    1  UNL1        0.0859
     11 C         141.2643  144.5075  164.1403 C.ar    1  UNL1        0.0558
     12 C         140.9786  144.8725  162.7138 C.ar    1  UNL1        0.1366
     13 O         140.6448  146.2901  162.3547 O.3     1  UNL1       -0.5054
     14 H         140.6147  146.9477  163.0215 H       1  UNL1        0.2922
     15 N         141.8838  142.7249  165.9260 N.ar    1  UNL1       -0.2280
     16 C         140.8664  142.5709  167.0174 C.ar    1  UNL1        0.1020
     17 C         141.5908  142.2007  168.2776 C.ar    1  UNL1        0.0431
     18 C         143.0560  142.1258  167.9650 C.ar    1  UNL1        0.1221
     19 N         143.2370  142.4498  166.5116 N.ar    1  UNL1       -0.1635
     20 C         139.7295  144.2035  154.9067 C.3     1  UNL1        0.1135
     21 N         139.8841  145.2799  155.9398 N.pl3   1  UNL1       -0.2916
     22 C         139.7530  146.7215  155.5463 C.3     1  UNL1        0.0768
     23 C         140.3236  147.1982  154.2436 C.3     1  UNL1        0.0342
     24 C         140.1925  148.6397  153.8502 C.3     1  UNL1        0.0435
     25 C         140.3205  149.8979  153.0437 C.3     1  UNL1        0.0158
     26 C         140.9386  148.1119  152.6608 C.3     1  UNL1        0.0158
     27 N         139.4908  149.6045  154.7594 N.3     1  UNL1       -0.3015
     28 C         138.9201  149.1278  156.0622 C.3     1  UNL1        0.0435
     29 C         138.2195  149.1549  157.3882 C.3     1  UNL1        0.0158
     30 C         138.5457  150.5787  156.1293 C.3     1  UNL1        0.0158
     31 C         139.0512  147.6863  156.4557 C.3     1  UNL1        0.0342
     32 H         138.7168  150.0015  154.2267 H       1  UNL1        0.1231
@<TRIPOS>BOND
     1    20    21    1
     2    21     1    1
     3     1     2   ar
     4     2     3   ar
     5     3     4   ar
     6     4     7    1
     7     7     8   ar
     8     8     9   ar
     9     9    10   ar
    10    10    15    1
    11    15    16   ar
    12    16    17   ar
    13    17    18   ar
    14    18    19   ar
    15    10    11   ar
    16    11    12   ar
    17    12    13    1
    18     4     5   ar
    19     5     6   ar
    20    21    22    1
    21    22    23    1
    22    23    24    1
    23    24    25    1
    24    24    26    1
    25    24    27    1
    26    27    28    1
    27    28    29    1
    28    28    30    1
    29    28    31    1
    30     6     1   ar
    31    31    22    1
    32    12     7   ar
    33    19    15   ar
    34    13    14    1
    35    27    32    1
@<TRIPOS>MOLECULE
*****
 32 35 0 0 0
SMALL
GASTEIGER

@<TRIPOS>ATOM
      1 C         142.0949  140.7929  164.5359 C.ar    1  UNL1        0.1535
      2 C         140.7015  140.6789  163.9923 C.ar    1  UNL1        0.0377
      3 C         140.3130  141.4396  162.7593 C.ar    1  UNL1        0.0239
      4 C         141.3178  142.3144  162.0699 C.ar    1  UNL1        0.1059
      5 N         142.7111  142.4284  162.6136 N.ar    1  UNL1       -0.1467
      6 N         143.0997  141.6676  163.8465 N.ar    1  UNL1       -0.1329
      7 C         140.9292  143.0751  160.8369 C.ar    1  UNL1        0.0532
      8 C         139.9911  142.4604  159.8409 C.ar    1  UNL1        0.0061
      9 C         139.6025  143.2212  158.6079 C.ar    1  UNL1        0.0194
     10 C         140.1520  144.5967  158.3709 C.ar    1  UNL1        0.0859
     11 C         141.0901  145.2114  159.3670 C.ar    1  UNL1        0.0558
     12 C         141.4787  144.4506  160.6000 C.ar    1  UNL1        0.1366
     13 O         142.4168  145.0653  161.5961 O.3     1  UNL1       -0.5054
     14 H         142.7601  145.9245  161.4481 H       1  UNL1        0.2922
     15 N         139.7635  145.3574  157.1380 N.ar    1  UNL1       -0.2280
     16 C         139.3487  144.7588  155.8266 C.ar    1  UNL1        0.1020
     17 C         139.0503  145.8818  154.8781 C.ar    1  UNL1        0.0431
     18 C         139.2807  147.1746  155.6032 C.ar    1  UNL1        0.1221
     19 N         139.7214  146.8505  156.9999 N.ar    1  UNL1       -0.1635
     20 C         143.4218  138.8663  165.6663 C.3     1  UNL1        0.1135
     21 N         142.4835  140.0321  165.7689 N.pl3   1  UNL1       -0.2916
     22 C         141.9338  140.4372  167.1045 C.3     1  UNL1        0.0768
     23 C         140.5394  140.0434  167.4924 C.3     1  UNL1        0.0342
     24 C         139.9897  140.4485  168.8279 C.3     1  UNL1        0.0435
     25 C         139.0310  140.5936  169.9724 C.3     1  UNL1        0.0158
     26 C         138.8120  139.6999  168.2777 C.3     1  UNL1        0.0158
     27 N         140.8344  141.2474  169.7756 N.3     1  UNL1       -0.3015
     28 C         142.2289  141.6413  169.3877 C.3     1  UNL1        0.0435
     29 C         143.5975  142.2491  169.4741 C.3     1  UNL1        0.0158
     30 C         142.1545  142.2574  170.7533 C.3     1  UNL1        0.0158
     31 C         142.7786  141.2362  168.0522 C.3     1  UNL1        0.0342
     32 H         140.9106  140.7016  170.6339 H       1  UNL1        0.1231
@<TRIPOS>BOND
     1    20    21    1
     2    21     1    1
     3     1     2   ar
     4     2     3   ar
     5     3     4   ar
     6     4     7    1
     7     7     8   ar
     8     8     9   ar
     9     9    10   ar
    10    10    15    1
    11    15    16   ar
    12    16    17   ar
    13    17    18   ar
    14    18    19   ar
    15    10    11   ar
    16    11    12   ar
    17    12    13    1
    18     4     5   ar
    19     5     6   ar
    20    21    22    1
    21    22    23    1
    22    23    24    1
    23    24    25    1
    24    24    26    1
    25    24    27    1
    26    27    28    1
    27    28    29    1
    28    28    30    1
    29    28    31    1
    30     6     1   ar
    31    31    22    1
    32    12     7   ar
    33    19    15   ar
    34    13    14    1
    35    27    32    1
@<TRIPOS>MOLECULE
*****
 32 35 0 0 0
SMALL
GASTEIGER

@<TRIPOS>ATOM
      1 C         141.7443  141.1012  164.0615 C.ar    1  UNL1        0.1535
      2 C         142.4638  140.7785  162.7855 C.ar    1  UNL1        0.0377
      3 C         142.2048  141.5919  161.5521 C.ar    1  UNL1        0.0239
      4 C         141.2264  142.7280  161.5947 C.ar    1  UNL1        0.1059
      5 N         140.5070  143.0508  162.8707 N.ar    1  UNL1       -0.1467
      6 N         140.7659  142.2374  164.1041 N.ar    1  UNL1       -0.1329
      7 C         140.9675  143.5415  160.3613 C.ar    1  UNL1        0.0532
      8 C         140.7966  142.8603  159.0359 C.ar    1  UNL1        0.0061
      9 C         140.5377  143.6737  157.8024 C.ar    1  UNL1        0.0194
     10 C         140.4496  145.1683  157.8944 C.ar    1  UNL1        0.0859
     11 C         140.6206  145.8495  159.2199 C.ar    1  UNL1        0.0558
     12 C         140.8795  145.0361  160.4533 C.ar    1  UNL1        0.1366
     13 O         141.0504  145.7172  161.7788 O.3     1  UNL1       -0.5054
     14 H         140.9955  146.6508  161.8363 H       1  UNL1        0.2922
     15 N         140.1907  145.9818  156.6611 N.ar    1  UNL1       -0.2280
     16 C         140.8748  145.8167  155.3363 C.ar    1  UNL1        0.1020
     17 C         140.3091  146.8360  154.3924 C.ar    1  UNL1        0.0431
     18 C         139.2755  147.6310  155.1338 C.ar    1  UNL1        0.1221
     19 N         139.2023  147.1031  156.5359 N.ar    1  UNL1       -0.1635
     20 C         143.3782  139.7529  165.5657 C.3     1  UNL1        0.1135
     21 N         142.0033  140.2878  165.2949 N.pl3   1  UNL1       -0.2916
     22 C         140.8872  140.0093  166.2576 C.3     1  UNL1        0.0768
     23 C         139.7704  139.0881  165.8650 C.3     1  UNL1        0.0342
     24 C         138.6543  138.8096  166.8277 C.3     1  UNL1        0.0435
     25 C         137.3849  138.2392  167.3872 C.3     1  UNL1        0.0158
     26 C         138.2127  137.9688  165.6667 C.3     1  UNL1        0.0158
     27 N         138.6550  139.4523  168.1831 N.3     1  UNL1       -0.3015
     28 C         139.7719  140.3735  168.5757 C.3     1  UNL1        0.0435
     29 C         140.6011  141.3111  169.4024 C.3     1  UNL1        0.0158
     30 C         138.9438  140.4206  169.8255 C.3     1  UNL1        0.0158
     31 C         140.8879  140.6520  167.6130 C.3     1  UNL1        0.0342
     32 H         138.6426  138.6962  168.8675 H       1  UNL1        0.1231
@<TRIPOS>BOND
     1    20    21    1
     2    21     1    1
     3     1     2   ar
     4     2     3   ar
     5     3     4   ar
     6     4     7    1
     7     7     8   ar
     8     8     9   ar
     9     9    10   ar
    10    10    15    1
    11    15    16   ar
    12    16    17   ar
    13    17    18   ar
    14    18    19   ar
    15    10    11   ar
    16    11    12   ar
    17    12    13    1
    18     4     5   ar
    19     5     6   ar
    20    21    22    1
    21    22    23    1
    22    23    24    1
    23    24    25    1
    24    24    26    1
    25    24    27    1
    26    27    28    1
    27    28    29    1
    28    28    30    1
    29    28    31    1
    30     6     1   ar
    31    31    22    1
    32    12     7   ar
    33    19    15   ar
    34    13    14    1
    35    27    32    1
@<TRIPOS>MOLECULE
*****
 32 35 0 0 0
SMALL
GASTEIGER

@<TRIPOS>ATOM
      1 C         141.8779  142.4511  164.9189 C.ar    1  UNL1        0.1535
      2 C         142.3843  141.6342  163.7673 C.ar    1  UNL1        0.0377
      3 C         142.2557  142.1531  162.3658 C.ar    1  UNL1        0.0239
      4 C         141.6206  143.4888  162.1159 C.ar    1  UNL1        0.1059
      5 N         141.1141  144.3057  163.2675 N.ar    1  UNL1       -0.1467
      6 N         141.2427  143.7868  164.6690 N.ar    1  UNL1       -0.1329
      7 C         141.4919  144.0077  160.7144 C.ar    1  UNL1        0.0532
      8 C         142.5070  143.6271  159.6776 C.ar    1  UNL1        0.0061
      9 C         142.3783  144.1460  158.2761 C.ar    1  UNL1        0.0194
     10 C         141.2346  145.0454  157.9113 C.ar    1  UNL1        0.0859
     11 C         140.2196  145.4259  158.9481 C.ar    1  UNL1        0.0558
     12 C         140.3482  144.9070  160.3496 C.ar    1  UNL1        0.1366
     13 O         139.3332  145.2876  161.3864 O.3     1  UNL1       -0.5054
     14 H         138.6187  145.8494  161.1586 H       1  UNL1        0.2922
     15 N         141.1060  145.5642  156.5098 N.ar    1  UNL1       -0.2280
     16 C         141.9660  145.1764  155.3436 C.ar    1  UNL1        0.1020
     17 C         141.4862  145.9344  154.1415 C.ar    1  UNL1        0.0431
     18 C         140.3297  146.7909  154.5648 C.ar    1  UNL1        0.1221
     19 N         140.0947  146.5620  156.0285 N.ar    1  UNL1       -0.1635
     20 C         143.2562  142.1972  167.1066 C.3     1  UNL1        0.1135
     21 N         142.0065  141.9322  166.3205 N.pl3   1  UNL1       -0.2916
     22 C         140.8854  141.1484  166.9358 C.3     1  UNL1        0.0768
     23 C         140.5641  141.3154  168.3915 C.3     1  UNL1        0.0342
     24 C         139.4430  140.5315  169.0068 C.3     1  UNL1        0.0435
     25 C         138.4841  140.0157  170.0384 C.3     1  UNL1        0.0158
     26 C         139.9099  141.3032  170.2054 C.3     1  UNL1        0.0158
     27 N         138.6431  139.5807  168.1666 N.3     1  UNL1       -0.3015
     28 C         138.9644  139.4136  166.7109 C.3     1  UNL1        0.0435
     29 C         138.8869  138.9142  165.2986 C.3     1  UNL1        0.0158
     30 C         137.8164  138.4564  166.8358 C.3     1  UNL1        0.0158
     31 C         140.0855  140.1975  166.0955 C.3     1  UNL1        0.0342
     32 H         137.6714  139.8860  168.2206 H       1  UNL1        0.1231
@<TRIPOS>BOND
     1    20    21    1
     2    21     1    1
     3     1     2   ar
     4     2     3   ar
     5     3     4   ar
     6     4     7    1
     7     7     8   ar
     8     8     9   ar
     9     9    10   ar
    10    10    15    1
    11    15    16   ar
    12    16    17   ar
    13    17    18   ar
    14    18    19   ar
    15    10    11   ar
    16    11    12   ar
    17    12    13    1
    18     4     5   ar
    19     5     6   ar
    20    21    22    1
    21    22    23    1
    22    23    24    1
    23    24    25    1
    24    24    26    1
    25    24    27    1
    26    27    28    1
    27    28    29    1
    28    28    30    1
    29    28    31    1
    30     6     1   ar
    31    31    22    1
    32    12     7   ar
    33    19    15   ar
    34    13    14    1
    35    27    32    1
@<TRIPOS>MOLECULE
*****
 32 35 0 0 0
SMALL
GASTEIGER

@<TRIPOS>ATOM
      1 C         141.4785  136.3511  156.1126 C.ar    1  UNL1        0.1535
      2 C         142.4401  137.0123  157.0549 C.ar    1  UNL1        0.0377
      3 C         141.9386  137.9961  158.0700 C.ar    1  UNL1        0.0239
      4 C         140.4755  138.3187  158.1428 C.ar    1  UNL1        0.1059
      5 N         139.5139  137.6575  157.2005 N.ar    1  UNL1       -0.1467
      6 N         140.0154  136.6737  156.1854 N.ar    1  UNL1       -0.1329
      7 C         139.9740  139.3026  159.1580 C.ar    1  UNL1        0.0532
      8 C         140.6642  139.4301  160.4836 C.ar    1  UNL1        0.0061
      9 C         140.1627  140.4139  161.4988 C.ar    1  UNL1        0.0194
     10 C         138.9710  141.2703  161.1883 C.ar    1  UNL1        0.0859
     11 C         138.2808  141.1428  159.8626 C.ar    1  UNL1        0.0558
     12 C         138.7823  140.1590  158.8475 C.ar    1  UNL1        0.1366
     13 O         138.0921  140.0315  157.5218 O.3     1  UNL1       -0.5054
     14 H         137.3477  140.5665  157.3278 H       1  UNL1        0.2922
     15 N         138.4695  142.2542  162.2035 N.ar    1  UNL1       -0.2280
     16 C         138.1767  141.9616  163.6452 C.ar    1  UNL1        0.1020
     17 C         137.6990  143.2299  164.2879 C.ar    1  UNL1        0.0431
     18 C         137.6966  144.3065  163.2433 C.ar    1  UNL1        0.1221
     19 N         138.1728  143.7034  161.9550 N.ar    1  UNL1       -0.1635
     20 C         142.2333  135.8087  153.6864 C.3     1  UNL1        0.1135
     21 N         141.9800  135.3672  155.0974 N.pl3   1  UNL1       -0.2916
     22 C         142.2282  133.9418  155.4932 C.3     1  UNL1        0.0768
     23 C         143.3082  133.6150  156.4814 C.3     1  UNL1        0.0342
     24 C         143.5564  132.1896  156.8773 C.3     1  UNL1        0.0435
     25 C         144.1671  131.0026  157.5613 C.3     1  UNL1        0.0158
     26 C         144.6004  132.8760  157.7072 C.3     1  UNL1        0.0158
     27 N         142.7245  131.0910  156.2849 N.3     1  UNL1       -0.3015
     28 C         141.6443  131.4178  155.2966 C.3     1  UNL1        0.0435
     29 C         140.5141  131.2265  154.3292 C.3     1  UNL1        0.0158
     30 C         141.5000  129.9260  155.3565 C.3     1  UNL1        0.0158
     31 C         141.3962  132.8432  154.9008 C.3     1  UNL1        0.0342
     32 H         142.2751  130.6093  157.0637 H       1  UNL1        0.1231
@<TRIPOS>BOND
     1    20    21    1
     2    21     1    1
     3     1     2   ar
     4     2     3   ar
     5     3     4   ar
     6     4     7    1
     7     7     8   ar
     8     8     9   ar
     9     9    10   ar
    10    10    15    1
    11    15    16   ar
    12    16    17   ar
    13    17    18   ar
    14    18    19   ar
    15    10    11   ar
    16    11    12   ar
    17    12    13    1
    18     4     5   ar
    19     5     6   ar
    20    21    22    1
    21    22    23    1
    22    23    24    1
    23    24    25    1
    24    24    26    1
    25    24    27    1
    26    27    28    1
    27    28    29    1
    28    28    30    1
    29    28    31    1
    30     6     1   ar
    31    31    22    1
    32    12     7   ar
    33    19    15   ar
    34    13    14    1
    35    27    32    1
@<TRIPOS>MOLECULE
*****
 32 35 0 0 0
SMALL
GASTEIGER

@<TRIPOS>ATOM
      1 C         142.6704  138.4991  158.3218 C.ar    1  UNL1        0.1535
      2 C         141.2445  138.4597  158.7856 C.ar    1  UNL1        0.0377
      3 C         140.9208  138.6773  160.2340 C.ar    1  UNL1        0.0239
      4 C         142.0229  138.9343  161.2185 C.ar    1  UNL1        0.1059
      5 N         143.4488  138.9738  160.7546 N.ar    1  UNL1       -0.1467
      6 N         143.7726  138.7562  159.3062 N.ar    1  UNL1       -0.1329
      7 C         141.6991  139.1519  162.6669 C.ar    1  UNL1        0.0532
      8 C         141.7569  140.5331  163.2491 C.ar    1  UNL1        0.0061
      9 C         141.4331  140.7507  164.6975 C.ar    1  UNL1        0.0194
     10 C         141.0515  139.5871  165.5637 C.ar    1  UNL1        0.0859
     11 C         140.9938  138.2058  164.9815 C.ar    1  UNL1        0.0558
     12 C         141.3175  137.9883  163.5331 C.ar    1  UNL1        0.1366
     13 O         141.2598  136.6070  162.9509 O.3     1  UNL1       -0.5054
     14 H         141.0214  135.8801  163.4920 H       1  UNL1        0.2922
     15 N         140.7277  139.8046  167.0121 N.ar    1  UNL1       -0.2280
     16 C         139.3539  139.9522  167.5959 C.ar    1  UNL1        0.1020
     17 C         139.4980  140.1515  169.0756 C.ar    1  UNL1        0.0431
     18 C         140.9609  140.1272  169.4062 C.ar    1  UNL1        0.1221
     19 N         141.7209  139.9128  168.1309 N.ar    1  UNL1       -0.1635
     20 C         143.4578  139.4304  156.0276 C.3     1  UNL1        0.1135
     21 N         142.9942  138.2815  156.8733 N.pl3   1  UNL1       -0.2916
     22 C         142.8545  136.9151  156.2707 C.3     1  UNL1        0.0768
     23 C         143.1751  135.6987  157.0877 C.3     1  UNL1        0.0342
     24 C         143.0353  134.3322  156.4850 C.3     1  UNL1        0.0435
     25 C         143.0582  132.8376  156.3604 C.3     1  UNL1        0.0158
     26 C         143.5036  133.9632  157.8614 C.3     1  UNL1        0.0158
     27 N         142.5749  134.1821  155.0654 N.3     1  UNL1       -0.3015
     28 C         142.2543  135.3985  154.2483 C.3     1  UNL1        0.0435
     29 C         141.8346  136.2421  153.0812 C.3     1  UNL1        0.0158
     30 C         141.9688  134.3250  153.2403 C.3     1  UNL1        0.0158
     31 C         142.3941  136.7650  154.8509 C.3     1  UNL1        0.0342
     32 H         141.7296  133.6118  155.0887 H       1  UNL1        0.1231
@<TRIPOS>BOND
     1    20    21    1
     2    21     1    1
     3     1     2   ar
     4     2     3   ar
     5     3     4   ar
     6     4     7    1
     7     7     8   ar
     8     8     9   ar
     9     9    10   ar
    10    10    15    1
    11    15    16   ar
    12    16    17   ar
    13    17    18   ar
    14    18    19   ar
    15    10    11   ar
    16    11    12   ar
    17    12    13    1
    18     4     5   ar
    19     5     6   ar
    20    21    22    1
    21    22    23    1
    22    23    24    1
    23    24    25    1
    24    24    26    1
    25    24    27    1
    26    27    28    1
    27    28    29    1
    28    28    30    1
    29    28    31    1
    30     6     1   ar
    31    31    22    1
    32    12     7   ar
    33    19    15   ar
    34    13    14    1
    35    27    32    1
@<TRIPOS>MOLECULE
*****
 32 35 0 0 0
SMALL
GASTEIGER

@<TRIPOS>ATOM
      1 C         142.6838  138.5085  158.3280 C.ar    1  UNL1        0.1535
      2 C         141.2568  138.4491  158.7861 C.ar    1  UNL1        0.0377
      3 C         140.9232  138.6725  160.2314 C.ar    1  UNL1        0.0239
      4 C         142.0166  138.9553  161.2185 C.ar    1  UNL1        0.1059
      5 N         143.4437  139.0147  160.7604 N.ar    1  UNL1       -0.1467
      6 N         143.7773  138.7913  159.3151 N.ar    1  UNL1       -0.1329
      7 C         141.6829  139.1788  162.6638 C.ar    1  UNL1        0.0532
      8 C         141.6972  140.5674  163.2308 C.ar    1  UNL1        0.0061
      9 C         141.3635  140.7908  164.6761 C.ar    1  UNL1        0.0194
     10 C         141.0155  139.6256  165.5543 C.ar    1  UNL1        0.0859
     11 C         141.0013  138.2370  164.9872 C.ar    1  UNL1        0.0558
     12 C         141.3350  138.0136  163.5420 C.ar    1  UNL1        0.1366
     13 O         141.3207  136.6249  162.9749 O.3     1  UNL1       -0.5054
     14 H         141.1033  135.8971  163.5234 H       1  UNL1        0.2922
     15 N         140.6819  139.8490  166.9995 N.ar    1  UNL1       -0.2280
     16 C         141.6688  140.0302  168.1145 C.ar    1  UNL1        0.1020
     17 C         140.8996  140.2236  169.3876 C.ar    1  UNL1        0.0431
     18 C         139.4372  140.1619  169.0594 C.ar    1  UNL1        0.1221
     19 N         139.3027  139.9304  167.5835 N.ar    1  UNL1       -0.1635
     20 C         143.4718  139.4336  156.0316 C.3     1  UNL1        0.1135
     21 N         143.0175  138.2850  156.8827 N.pl3   1  UNL1       -0.2916
     22 C         142.8969  136.9130  156.2886 C.3     1  UNL1        0.0768
     23 C         142.4452  136.7479  154.8679 C.3     1  UNL1        0.0342
     24 C         142.3245  135.3759  154.2737 C.3     1  UNL1        0.0435
     25 C         142.0566  134.2924  153.2717 C.3     1  UNL1        0.0158
     26 C         141.9003  136.2066  153.0991 C.3     1  UNL1        0.0158
     27 N         142.6557  134.1689  155.1004 N.3     1  UNL1       -0.3015
     28 C         143.1075  134.3339  156.5213 C.3     1  UNL1        0.0435
     29 C         143.5736  133.9797  157.9023 C.3     1  UNL1        0.0158
     30 C         143.1487  132.8389  156.4068 C.3     1  UNL1        0.0158
     31 C         143.2281  135.7059  157.1154 C.3     1  UNL1        0.0342
     32 H         143.3996  133.6717  154.6107 H       1  UNL1        0.1231
@<TRIPOS>BOND
     1    20    21    1
     2    21     1    1
     3     1     2   ar
     4     2     3   ar
     5     3     4   ar
     6     4     7    1
     7     7     8   ar
     8     8     9   ar
     9     9    10   ar
    10    10    15    1
    11    15    16   ar
    12    16    17   ar
    13    17    18   ar
    14    18    19   ar
    15    10    11   ar
    16    11    12   ar
    17    12    13    1
    18     4     5   ar
    19     5     6   ar
    20    21    22    1
    21    22    23    1
    22    23    24    1
    23    24    25    1
    24    24    26    1
    25    24    27    1
    26    27    28    1
    27    28    29    1
    28    28    30    1
    29    28    31    1
    30     6     1   ar
    31    31    22    1
    32    12     7   ar
    33    19    15   ar
    34    13    14    1
    35    27    32    1
@<TRIPOS>MOLECULE
*****
 32 35 0 0 0
SMALL
GASTEIGER

@<TRIPOS>ATOM
      1 C         139.4356  138.8240  164.7989 C.ar    1  UNL1        0.1535
      2 C         139.0219  139.8301  163.7663 C.ar    1  UNL1        0.0377
      3 C         139.4532  139.6613  162.3396 C.ar    1  UNL1        0.0239
      4 C         140.2982  138.4863  161.9456 C.ar    1  UNL1        0.1059
      5 N         140.7120  137.4801  162.9782 N.ar    1  UNL1       -0.1467
      6 N         140.2807  137.6490  164.4049 N.ar    1  UNL1       -0.1329
      7 C         140.7295  138.3175  160.5188 C.ar    1  UNL1        0.0532
      8 C         139.7628  138.5929  159.4055 C.ar    1  UNL1        0.0061
      9 C         140.1941  138.4241  157.9787 C.ar    1  UNL1        0.0194
     10 C         141.5921  137.9799  157.6654 C.ar    1  UNL1        0.0859
     11 C         142.5589  137.7045  158.7788 C.ar    1  UNL1        0.0558
     12 C         142.1276  137.8733  160.2055 C.ar    1  UNL1        0.1366
     13 O         143.0943  137.5979  161.3189 O.3     1  UNL1       -0.5054
     14 H         143.9676  137.3204  161.1232 H       1  UNL1        0.2922
     15 N         142.0234  137.8111  156.2387 N.ar    1  UNL1       -0.2280
     16 C         142.0469  136.5225  155.4712 C.ar    1  UNL1        0.1020
     17 C         142.5450  136.8163  154.0872 C.ar    1  UNL1        0.0431
     18 C         142.8294  138.2865  153.9993 C.ar    1  UNL1        0.1221
     19 N         142.5071  138.9013  155.3290 N.ar    1  UNL1       -0.1635
     20 C         137.7795  138.2871  166.7274 C.3     1  UNL1        0.1135
     21 N         139.0044  138.9927  166.2257 N.pl3   1  UNL1       -0.2916
     22 C         139.7979  139.8672  167.1506 C.3     1  UNL1        0.0768
     23 C         139.2819  140.1663  168.5269 C.3     1  UNL1        0.0342
     24 C         140.0755  141.0408  169.4518 C.3     1  UNL1        0.0435
     25 C         140.4607  141.8080  170.6818 C.3     1  UNL1        0.0158
     26 C         138.8996  140.7318  170.3304 C.3     1  UNL1        0.0158
     27 N         141.3851  141.6162  169.0005 N.3     1  UNL1       -0.3015
     28 C         141.9012  141.3171  167.6241 C.3     1  UNL1        0.0435
     29 C         142.8015  141.3223  166.4243 C.3     1  UNL1        0.0158
     30 C         143.0074  142.1934  168.1324 C.3     1  UNL1        0.0158
     31 C         141.1076  140.4426  166.6992 C.3     1  UNL1        0.0342
     32 H         142.0928  141.2887  169.6579 H       1  UNL1        0.1231
@<TRIPOS>BOND
     1    20    21    1
     2    21     1    1
     3     1     2   ar
     4     2     3   ar
     5     3     4   ar
     6     4     7    1
     7     7     8   ar
     8     8     9   ar
     9     9    10   ar
    10    10    15    1
    11    15    16   ar
    12    16    17   ar
    13    17    18   ar
    14    18    19   ar
    15    10    11   ar
    16    11    12   ar
    17    12    13    1
    18     4     5   ar
    19     5     6   ar
    20    21    22    1
    21    22    23    1
    22    23    24    1
    23    24    25    1
    24    24    26    1
    25    24    27    1
    26    27    28    1
    27    28    29    1
    28    28    30    1
    29    28    31    1
    30     6     1   ar
    31    31    22    1
    32    12     7   ar
    33    19    15   ar
    34    13    14    1
    35    27    32    1
