@<TRIPOS>MOLECULE
*****
 34 38 0 0 0
SMALL
GASTEIGER

@<TRIPOS>ATOM
      1 C         140.8223  142.7317  165.9532 C.ar    1  UNL1        0.0016
      2 C         139.6632  143.6465  166.2168 C.ar    1  UNL1        0.0016
      3 C         139.1549  144.5455  165.1289 C.ar    1  UNL1        0.0191
      4 C         139.8057  144.5296  163.7776 C.ar    1  UNL1        0.0828
      5 N         139.2974  145.4287  162.6897 N.ar    1  UNL1       -0.2422
      6 C         139.9482  145.4128  161.3383 C.ar    1  UNL1        0.1175
      7 C         141.1074  144.4980  161.0749 C.ar    1  UNL1        0.0989
      8 C         141.6157  143.5990  162.1627 C.ar    1  UNL1        0.0826
      9 C         140.9649  143.6148  163.5140 C.ar    1  UNL1        0.0350
     10 C         141.4731  142.7159  164.6019 C.ar    1  UNL1        0.0030
     11 N         142.7666  142.8102  161.6121 N.ar    1  UNL1       -0.2815
     12 C         142.9696  143.2217  160.1841 C.ar    1  UNL1        0.3316
     13 O         144.0147  142.6843  159.2517 O.2     1  UNL1       -0.2463
     14 N         141.9441  144.2648  159.8520 N.ar    1  UNL1       -0.2765
     15 C         141.7836  144.9538  158.5293 C.3     1  UNL1        0.1352
     16 C         142.3473  140.0347  169.2168 C.ar    1  UNL1        0.2249
     17 C         142.6039  139.6916  167.7793 C.ar    1  UNL1        0.0577
     18 C         142.0955  140.5906  166.6914 C.ar    1  UNL1        0.0063
     19 C         141.3307  141.8327  167.0411 C.ar    1  UNL1        0.0194
     20 C         141.0741  142.1757  168.4786 C.ar    1  UNL1        0.1020
     21 N         141.5824  141.2768  169.5665 N.ar    1  UNL1       -0.2101
     22 O         142.8556  139.1357  170.3047 O.3     1  UNL1       -0.4602
     23 C         143.4007  137.7804  169.9641 C.3     1  UNL1        0.2085
     24 C         143.7634  136.8211  171.0587 C.3     1  UNL1        0.0647
     25 C         144.8215  135.7836  170.8267 C.3     1  UNL1        0.0760
     26 C         145.8486  134.5252  172.8544 C.3     1  UNL1        0.0897
     27 N         145.9313  135.6089  171.8205 N.3     1  UNL1       -0.2702
     28 C         147.1238  136.5179  171.7805 C.3     1  UNL1        0.0897
     29 C         143.5730  141.7892  162.3587 C.3     1  UNL1        0.0947
     30 C         144.8432  141.8171  163.1560 C.3     1  UNL1        0.0521
     31 C         144.7134  140.3453  163.4145 C.3     1  UNL1        0.1143
     32 O         145.5197  139.3242  164.1610 O.3     1  UNL1       -0.3843
     33 C         143.4432  140.3173  162.6171 C.3     1  UNL1        0.0521
     34 H         145.0899  138.4576  164.0895 H       1  UNL1        0.2103
@<TRIPOS>BOND
     1    26    27    1
     2    27    28    1
     3    27    25    1
     4    25    24    1
     5    24    23    1
     6    23    22    1
     7    22    16    1
     8    16    17   ar
     9    17    18   ar
    10    18    19   ar
    11    19     1    1
    12     1     2   ar
    13     2     3   ar
    14     3     4   ar
    15     4     5   ar
    16     5     6   ar
    17     6     7   ar
    18     7     8   ar
    19     8     9   ar
    20     9    10   ar
    21     8    11   ar
    22    29    11    1
    23    29    30    1
    24    30    31    1
    25    31    32    1
    26    31    33    1
    27    11    12   ar
    28    12    13    2
    29    12    14   ar
    30    14    15    1
    31    19    20   ar
    32    20    21   ar
    33    21    16   ar
    34    10     1   ar
    35    33    29    1
    36     9     4   ar
    37    14     7   ar
    38    32    34    1
@<TRIPOS>MOLECULE
*****
 34 38 0 0 0
SMALL
GASTEIGER

@<TRIPOS>ATOM
      1 C         140.6826  138.6394  163.3112 C.ar    1  UNL1        0.0016
      2 C         139.3853  137.9494  163.6125 C.ar    1  UNL1        0.0016
      3 C         138.7449  138.1113  164.9591 C.ar    1  UNL1        0.0191
      4 C         139.4017  138.9632  166.0045 C.ar    1  UNL1        0.0828
      5 N         138.7612  139.1250  167.3512 N.ar    1  UNL1       -0.2422
      6 C         139.4180  139.9769  168.3966 C.ar    1  UNL1        0.1175
      7 C         140.7154  140.6670  168.0953 C.ar    1  UNL1        0.0989
      8 C         141.3559  140.5051  166.7486 C.ar    1  UNL1        0.0826
      9 C         140.6990  139.6532  165.7032 C.ar    1  UNL1        0.0350
     10 C         141.3395  139.4913  164.3565 C.ar    1  UNL1        0.0030
     11 N         142.6268  141.3017  166.7410 N.ar    1  UNL1       -0.2815
     12 C         142.7718  141.9560  168.0830 C.ar    1  UNL1        0.3316
     13 O         143.9001  142.8462  168.5126 O.2     1  UNL1       -0.2463
     14 N         141.5904  141.5637  168.9200 N.ar    1  UNL1       -0.2765
     15 C         141.3299  141.9927  170.3335 C.3     1  UNL1        0.1352
     16 C         142.6041  138.1538  159.2710 C.ar    1  UNL1        0.2249
     17 C         143.4170  137.9587  160.5165 C.ar    1  UNL1        0.0577
     18 C         142.7765  138.1205  161.8632 C.ar    1  UNL1        0.0063
     19 C         141.3232  138.4775  161.9644 C.ar    1  UNL1        0.0194
     20 C         140.5103  138.6727  160.7190 C.ar    1  UNL1        0.1020
     21 N         141.1507  138.5109  159.3723 N.ar    1  UNL1       -0.2101
     22 O         143.2446  137.9920  157.9244 O.3     1  UNL1       -0.4602
     23 C         142.6598  137.0379  156.9256 C.3     1  UNL1        0.2085
     24 C         143.5628  136.1764  156.0934 C.3     1  UNL1        0.0647
     25 C         142.9904  135.0459  155.2907 C.3     1  UNL1        0.0760
     26 C         143.2400  133.3444  157.2382 C.3     1  UNL1        0.0897
     27 N         142.5592  133.7829  155.9755 N.3     1  UNL1       -0.2702
     28 C         141.4473  132.9585  155.3977 C.3     1  UNL1        0.0897
     29 C         143.5845  141.4229  165.5930 C.3     1  UNL1        0.0947
     30 C         144.1364  142.5618  164.7877 C.3     1  UNL1        0.0521
     31 C         144.9390  141.5943  163.9694 C.3     1  UNL1        0.1143
     32 O         145.8968  141.7154  162.8213 O.3     1  UNL1       -0.3843
     33 C         144.3872  140.4554  164.7746 C.3     1  UNL1        0.0521
     34 H         146.2113  140.8334  162.5682 H       1  UNL1        0.2103
@<TRIPOS>BOND
     1    26    27    1
     2    27    28    1
     3    27    25    1
     4    25    24    1
     5    24    23    1
     6    23    22    1
     7    22    16    1
     8    16    17   ar
     9    17    18   ar
    10    18    19   ar
    11    19     1    1
    12     1     2   ar
    13     2     3   ar
    14     3     4   ar
    15     4     5   ar
    16     5     6   ar
    17     6     7   ar
    18     7     8   ar
    19     8     9   ar
    20     9    10   ar
    21     8    11   ar
    22    29    11    1
    23    29    30    1
    24    30    31    1
    25    31    32    1
    26    31    33    1
    27    11    12   ar
    28    12    13    2
    29    12    14   ar
    30    14    15    1
    31    19    20   ar
    32    20    21   ar
    33    21    16   ar
    34    10     1   ar
    35    33    29    1
    36     9     4   ar
    37    14     7   ar
    38    32    34    1
@<TRIPOS>MOLECULE
*****
 34 38 0 0 0
SMALL
GASTEIGER

@<TRIPOS>ATOM
      1 C         140.5887  143.0714  164.6490 C.ar    1  UNL1        0.0016
      2 C         139.5105  144.0851  164.8937 C.ar    1  UNL1        0.0016
      3 C         139.1318  145.0531  163.8122 C.ar    1  UNL1        0.0191
      4 C         139.8313  145.0073  162.4861 C.ar    1  UNL1        0.0828
      5 N         139.4526  145.9754  161.4046 N.ar    1  UNL1       -0.2422
      6 C         140.1521  145.9297  160.0785 C.ar    1  UNL1        0.1175
      7 C         141.2304  144.9159  159.8339 C.ar    1  UNL1        0.0989
      8 C         141.6090  143.9480  160.9153 C.ar    1  UNL1        0.0826
      9 C         140.9095  143.9937  162.2414 C.ar    1  UNL1        0.0350
     10 C         141.2882  143.0257  163.3229 C.ar    1  UNL1        0.0030
     11 N         142.7022  143.0672  160.3870 N.ar    1  UNL1       -0.2815
     12 C         142.9991  143.4908  158.9791 C.ar    1  UNL1        0.3316
     13 O         144.0256  142.8791  158.0722 O.2     1  UNL1       -0.2463
     14 N         142.0894  144.6334  158.6372 N.ar    1  UNL1       -0.2765
     15 C         142.0464  145.3650  157.3284 C.3     1  UNL1        0.1352
     16 C         141.7248  140.1674  167.8935 C.ar    1  UNL1        0.2249
     17 C         142.6894  141.2359  167.4718 C.ar    1  UNL1        0.0577
     18 C         142.3107  142.2040  166.3903 C.ar    1  UNL1        0.0063
     19 C         140.9674  142.1034  165.7305 C.ar    1  UNL1        0.0194
     20 C         140.0028  141.0349  166.1521 C.ar    1  UNL1        0.1020
     21 N         140.3815  140.0669  167.2336 N.ar    1  UNL1       -0.2101
     22 O         142.1035  139.1994  168.9749 O.3     1  UNL1       -0.4602
     23 C         141.8675  139.5522  170.4135 C.3     1  UNL1        0.2085
     24 C         140.6818  140.3875  170.7962 C.3     1  UNL1        0.0647
     25 C         140.8835  141.7646  171.3555 C.3     1  UNL1        0.0760
     26 C         140.5216  143.5949  169.5475 C.3     1  UNL1        0.0897
     27 N         141.4310  142.8554  170.4835 N.3     1  UNL1       -0.2702
     28 C         142.8879  143.2067  170.5476 C.3     1  UNL1        0.0897
     29 C         143.3795  141.9576  161.1354 C.3     1  UNL1        0.0947
     30 C         144.6307  141.8399  161.9543 C.3     1  UNL1        0.0521
     31 C         144.3375  140.3884  162.1937 C.3     1  UNL1        0.1143
     32 O         145.0148  139.2788  162.9421 O.3     1  UNL1       -0.3843
     33 C         143.0863  140.5061  161.3747 C.3     1  UNL1        0.0521
     34 H         144.4950  138.4647  162.8535 H       1  UNL1        0.2103
@<TRIPOS>BOND
     1    26    27    1
     2    27    28    1
     3    27    25    1
     4    25    24    1
     5    24    23    1
     6    23    22    1
     7    22    16    1
     8    16    17   ar
     9    17    18   ar
    10    18    19   ar
    11    19     1    1
    12     1     2   ar
    13     2     3   ar
    14     3     4   ar
    15     4     5   ar
    16     5     6   ar
    17     6     7   ar
    18     7     8   ar
    19     8     9   ar
    20     9    10   ar
    21     8    11   ar
    22    29    11    1
    23    29    30    1
    24    30    31    1
    25    31    32    1
    26    31    33    1
    27    11    12   ar
    28    12    13    2
    29    12    14   ar
    30    14    15    1
    31    19    20   ar
    32    20    21   ar
    33    21    16   ar
    34    10     1   ar
    35    33    29    1
    36     9     4   ar
    37    14     7   ar
    38    32    34    1
@<TRIPOS>MOLECULE
*****
 34 38 0 0 0
SMALL
GASTEIGER

@<TRIPOS>ATOM
      1 C         143.2441  141.1131  163.3888 C.ar    1  UNL1        0.0016
      2 C         144.2565  142.0699  163.9450 C.ar    1  UNL1        0.0016
      3 C         144.1509  142.5295  165.3690 C.ar    1  UNL1        0.0191
      4 C         143.0330  142.0321  166.2367 C.ar    1  UNL1        0.0828
      5 N         142.9275  142.4917  167.6607 N.ar    1  UNL1       -0.2422
      6 C         141.8096  141.9944  168.5284 C.ar    1  UNL1        0.1175
      7 C         140.7972  141.0374  167.9721 C.ar    1  UNL1        0.0989
      8 C         140.9027  140.5779  166.5482 C.ar    1  UNL1        0.0826
      9 C         142.0206  141.0753  165.6805 C.ar    1  UNL1        0.0350
     10 C         142.1262  140.6157  164.2565 C.ar    1  UNL1        0.0030
     11 N         139.7656  139.6374  166.2792 N.ar    1  UNL1       -0.2815
     12 C         138.9573  139.5157  167.5368 C.ar    1  UNL1        0.3316
     13 O         137.7273  138.6761  167.7167 O.2     1  UNL1       -0.2463
     14 N         139.5949  140.3810  168.5832 N.ar    1  UNL1       -0.2765
     15 C         139.1144  140.5586  169.9930 C.3     1  UNL1        0.1352
     16 C         143.5606  139.7343  159.1169 C.ar    1  UNL1        0.2249
     17 C         142.9157  141.0509  159.4342 C.ar    1  UNL1        0.0577
     18 C         142.8102  141.5105  160.8582 C.ar    1  UNL1        0.0063
     19 C         143.3496  140.6535  161.9648 C.ar    1  UNL1        0.0194
     20 C         143.9945  139.3369  161.6475 C.ar    1  UNL1        0.1020
     21 N         144.1000  138.8773  160.2236 N.ar    1  UNL1       -0.2101
     22 O         143.6662  139.2747  157.6930 O.3     1  UNL1       -0.4602
     23 C         142.6201  138.3659  157.1188 C.3     1  UNL1        0.2085
     24 C         142.6735  136.8924  157.3943 C.3     1  UNL1        0.0647
     25 C         142.8331  135.9227  156.2611 C.3     1  UNL1        0.0760
     26 C         143.6322  133.8380  157.5897 C.3     1  UNL1        0.0897
     27 N         142.7718  134.4470  156.5225 N.3     1  UNL1       -0.2702
     28 C         141.8501  133.5802  155.7168 C.3     1  UNL1        0.0897
     29 C         139.4859  138.9409  164.9804 C.3     1  UNL1        0.0947
     30 C         139.8901  137.6313  164.3707 C.3     1  UNL1        0.0521
     31 C         139.0905  137.9558  163.1438 C.3     1  UNL1        0.1143
     32 O         138.8108  137.2593  161.8451 O.3     1  UNL1       -0.3843
     33 C         138.6863  139.2654  163.7535 C.3     1  UNL1        0.0521
     34 H         138.2316  137.8137  161.2991 H       1  UNL1        0.2103
@<TRIPOS>BOND
     1    26    27    1
     2    27    28    1
     3    27    25    1
     4    25    24    1
     5    24    23    1
     6    23    22    1
     7    22    16    1
     8    16    17   ar
     9    17    18   ar
    10    18    19   ar
    11    19     1    1
    12     1     2   ar
    13     2     3   ar
    14     3     4   ar
    15     4     5   ar
    16     5     6   ar
    17     6     7   ar
    18     7     8   ar
    19     8     9   ar
    20     9    10   ar
    21     8    11   ar
    22    29    11    1
    23    29    30    1
    24    30    31    1
    25    31    32    1
    26    31    33    1
    27    11    12   ar
    28    12    13    2
    29    12    14   ar
    30    14    15    1
    31    19    20   ar
    32    20    21   ar
    33    21    16   ar
    34    10     1   ar
    35    33    29    1
    36     9     4   ar
    37    14     7   ar
    38    32    34    1
@<TRIPOS>MOLECULE
*****
 34 38 0 0 0
SMALL
GASTEIGER

@<TRIPOS>ATOM
      1 C         142.7332  142.2153  165.3280 C.ar    1  UNL1        0.0016
      2 C         143.6899  143.3357  165.0464 C.ar    1  UNL1        0.0016
      3 C         143.6084  144.0831  163.7484 C.ar    1  UNL1        0.0191
      4 C         142.5701  143.7101  162.7321 C.ar    1  UNL1        0.0828
      5 N         142.4885  144.4576  161.4341 N.ar    1  UNL1       -0.2422
      6 C         141.4503  144.0846  160.4178 C.ar    1  UNL1        0.1175
      7 C         140.4935  142.9642  160.6995 C.ar    1  UNL1        0.0989
      8 C         140.5751  142.2168  161.9975 C.ar    1  UNL1        0.0826
      9 C         141.6133  142.5898  163.0138 C.ar    1  UNL1        0.0350
     10 C         141.6949  141.8424  164.3117 C.ar    1  UNL1        0.0030
     11 N         139.5048  141.1658  161.9952 N.ar    1  UNL1       -0.2815
     12 C         138.7618  141.2637  160.6958 C.ar    1  UNL1        0.3316
     13 O         137.6100  140.4015  160.2716 O.2     1  UNL1       -0.2463
     14 N         139.3729  142.3752  159.8950 N.ar    1  UNL1       -0.2765
     15 C         138.9394  142.8196  158.5296 C.3     1  UNL1        0.1352
     16 C         142.9778  139.9729  169.2219 C.ar    1  UNL1        0.2249
     17 C         143.0379  141.4717  169.2145 C.ar    1  UNL1        0.0577
     18 C         142.9564  142.2192  167.9165 C.ar    1  UNL1        0.0063
     19 C         142.8147  141.4679  166.6260 C.ar    1  UNL1        0.0194
     20 C         142.7546  139.9691  166.6334 C.ar    1  UNL1        0.1020
     21 N         142.8361  139.2216  167.9313 N.ar    1  UNL1       -0.2101
     22 O         143.0593  139.2255  170.5198 O.3     1  UNL1       -0.4602
     23 C         143.0182  137.7261  170.5256 C.3     1  UNL1        0.2085
     24 C         144.2963  136.9408  170.5323 C.3     1  UNL1        0.0647
     25 C         144.4545  135.7737  171.4613 C.3     1  UNL1        0.0760
     26 C         145.9361  134.3441  173.0459 C.3     1  UNL1        0.0897
     27 N         145.7775  135.5119  172.1179 N.3     1  UNL1       -0.2702
     28 C         146.9418  136.4179  171.8466 C.3     1  UNL1        0.0897
     29 C         139.2265  140.1886  163.0986 C.3     1  UNL1        0.0947
     30 C         138.3531  140.1863  164.3181 C.3     1  UNL1        0.0521
     31 C         138.8327  138.8065  164.6590 C.3     1  UNL1        0.1143
     32 O         138.5544  137.8293  165.7624 O.3     1  UNL1       -0.3843
     33 C         139.7062  138.8088  163.4395 C.3     1  UNL1        0.0521
     34 H         139.0777  137.0248  165.6215 H       1  UNL1        0.2103
@<TRIPOS>BOND
     1    26    27    1
     2    27    28    1
     3    27    25    1
     4    25    24    1
     5    24    23    1
     6    23    22    1
     7    22    16    1
     8    16    17   ar
     9    17    18   ar
    10    18    19   ar
    11    19     1    1
    12     1     2   ar
    13     2     3   ar
    14     3     4   ar
    15     4     5   ar
    16     5     6   ar
    17     6     7   ar
    18     7     8   ar
    19     8     9   ar
    20     9    10   ar
    21     8    11   ar
    22    29    11    1
    23    29    30    1
    24    30    31    1
    25    31    32    1
    26    31    33    1
    27    11    12   ar
    28    12    13    2
    29    12    14   ar
    30    14    15    1
    31    19    20   ar
    32    20    21   ar
    33    21    16   ar
    34    10     1   ar
    35    33    29    1
    36     9     4   ar
    37    14     7   ar
    38    32    34    1
@<TRIPOS>MOLECULE
*****
 34 38 0 0 0
SMALL
GASTEIGER

@<TRIPOS>ATOM
      1 C         142.1907  143.5919  163.3213 C.ar    1  UNL1        0.0016
      2 C         143.4991  144.1776  163.7628 C.ar    1  UNL1        0.0016
      3 C         144.0312  143.8770  165.1326 C.ar    1  UNL1        0.0191
      4 C         143.2549  142.9907  166.0609 C.ar    1  UNL1        0.0828
      5 N         143.7871  142.6901  167.4308 N.ar    1  UNL1       -0.2422
      6 C         143.0108  141.8037  168.3591 C.ar    1  UNL1        0.1175
      7 C         141.7023  141.2180  167.9175 C.ar    1  UNL1        0.0989
      8 C         141.1702  141.5186  166.5477 C.ar    1  UNL1        0.0826
      9 C         141.9465  142.4050  165.6194 C.ar    1  UNL1        0.0350
     10 C         141.4144  142.7056  164.2496 C.ar    1  UNL1        0.0030
     11 N         139.8611  140.8032  166.3917 N.ar    1  UNL1       -0.2815
     12 C         139.5841  140.0605  167.6651 C.ar    1  UNL1        0.3316
     13 O         138.3805  139.2105  167.9462 O.2     1  UNL1       -0.2463
     14 N         140.7221  140.3168  168.6082 N.ar    1  UNL1       -0.2765
     15 C         140.8563  139.7683  169.9978 C.3     1  UNL1        0.1352
     16 C         140.5941  144.4938  159.2117 C.ar    1  UNL1        0.2249
     17 C         141.8718  143.7236  159.3676 C.ar    1  UNL1        0.0577
     18 C         142.4040  143.4230  160.7375 C.ar    1  UNL1        0.0063
     19 C         141.6585  143.8926  161.9514 C.ar    1  UNL1        0.0194
     20 C         140.3808  144.6628  161.7955 C.ar    1  UNL1        0.1020
     21 N         139.8486  144.9634  160.4258 N.ar    1  UNL1       -0.2101
     22 O         140.0619  144.7944  157.8420 O.3     1  UNL1       -0.4602
     23 C         140.1974  146.1749  157.2711 C.3     1  UNL1        0.2085
     24 C         139.6952  146.4672  155.8881 C.3     1  UNL1        0.0647
     25 C         138.7484  147.6078  155.6595 C.3     1  UNL1        0.0760
     26 C         138.7518  150.1993  155.4745 C.3     1  UNL1        0.0897
     27 N         139.2319  148.8619  154.9937 N.3     1  UNL1       -0.2702
     28 C         140.1954  148.7788  153.8471 C.3     1  UNL1        0.0897
     29 C         138.9831  140.8265  165.1758 C.3     1  UNL1        0.0947
     30 C         137.9728  141.7832  164.6152 C.3     1  UNL1        0.0521
     31 C         137.7413  140.8596  163.4562 C.3     1  UNL1        0.1143
     32 O         136.8633  140.8829  162.2402 O.3     1  UNL1       -0.3843
     33 C         138.7516  139.9029  164.0167 C.3     1  UNL1        0.0521
     34 H         137.0098  140.0773  161.7201 H       1  UNL1        0.2103
@<TRIPOS>BOND
     1    26    27    1
     2    27    28    1
     3    27    25    1
     4    25    24    1
     5    24    23    1
     6    23    22    1
     7    22    16    1
     8    16    17   ar
     9    17    18   ar
    10    18    19   ar
    11    19     1    1
    12     1     2   ar
    13     2     3   ar
    14     3     4   ar
    15     4     5   ar
    16     5     6   ar
    17     6     7   ar
    18     7     8   ar
    19     8     9   ar
    20     9    10   ar
    21     8    11   ar
    22    29    11    1
    23    29    30    1
    24    30    31    1
    25    31    32    1
    26    31    33    1
    27    11    12   ar
    28    12    13    2
    29    12    14   ar
    30    14    15    1
    31    19    20   ar
    32    20    21   ar
    33    21    16   ar
    34    10     1   ar
    35    33    29    1
    36     9     4   ar
    37    14     7   ar
    38    32    34    1
@<TRIPOS>MOLECULE
*****
 34 38 0 0 0
SMALL
GASTEIGER

@<TRIPOS>ATOM
      1 C         139.8338  139.0546  164.2719 C.ar    1  UNL1        0.0016
      2 C         138.5631  138.4348  164.7732 C.ar    1  UNL1        0.0016
      3 C         138.1732  138.5844  166.2139 C.ar    1  UNL1        0.0191
      4 C         139.0539  139.3538  167.1532 C.ar    1  UNL1        0.0828
      5 N         138.6639  139.5034  168.5940 N.ar    1  UNL1       -0.2422
      6 C         139.5446  140.2728  169.5333 C.ar    1  UNL1        0.1175
      7 C         140.8153  140.8927  169.0320 C.ar    1  UNL1        0.0989
      8 C         141.2052  140.7430  167.5913 C.ar    1  UNL1        0.0826
      9 C         140.3245  139.9736  166.6520 C.ar    1  UNL1        0.0350
     10 C         140.7144  139.8240  165.2113 C.ar    1  UNL1        0.0030
     11 N         142.5070  141.4596  167.3867 N.ar    1  UNL1       -0.2815
     12 C         142.9216  142.0521  168.7008 C.ar    1  UNL1        0.3316
     13 O         144.1637  142.8542  168.9538 O.2     1  UNL1       -0.2463
     14 N         141.8760  141.7017  169.7177 N.ar    1  UNL1       -0.2765
     15 C         141.8890  142.0918  171.1660 C.3     1  UNL1        0.1352
     16 C         141.0036  138.6058  159.9498 C.ar    1  UNL1        0.2249
     17 C         141.9839  139.1649  160.9380 C.ar    1  UNL1        0.0577
     18 C         141.5939  139.3145  162.3787 C.ar    1  UNL1        0.0063
     19 C         140.2237  138.9050  162.8312 C.ar    1  UNL1        0.0194
     20 C         139.2435  138.3459  161.8431 C.ar    1  UNL1        0.1020
     21 N         139.6334  138.1963  160.4024 N.ar    1  UNL1       -0.2101
     22 O         141.3936  138.4562  158.5092 O.3     1  UNL1       -0.4602
     23 C         142.5465  137.5740  158.1320 C.3     1  UNL1        0.2085
     24 C         143.0486  137.5592  156.7186 C.3     1  UNL1        0.0647
     25 C         143.6219  136.2999  156.1394 C.3     1  UNL1        0.0760
     26 C         141.7461  134.5748  155.6337 C.3     1  UNL1        0.0897
     27 N         142.9622  134.9807  156.4125 N.3     1  UNL1       -0.2702
     28 C         143.5185  134.0675  157.4643 C.3     1  UNL1        0.0897
     29 C         143.2616  141.5652  166.0946 C.3     1  UNL1        0.0947
     30 C         143.9258  140.5872  165.1713 C.3     1  UNL1        0.0521
     31 C         144.3289  141.7143  164.2674 C.3     1  UNL1        0.1143
     32 O         145.0836  141.8199  162.9754 O.3     1  UNL1       -0.3843
     33 C         143.6647  142.6923  165.1907 C.3     1  UNL1        0.0521
     34 H         145.1336  142.7502  162.7053 H       1  UNL1        0.2103
@<TRIPOS>BOND
     1    26    27    1
     2    27    28    1
     3    27    25    1
     4    25    24    1
     5    24    23    1
     6    23    22    1
     7    22    16    1
     8    16    17   ar
     9    17    18   ar
    10    18    19   ar
    11    19     1    1
    12     1     2   ar
    13     2     3   ar
    14     3     4   ar
    15     4     5   ar
    16     5     6   ar
    17     6     7   ar
    18     7     8   ar
    19     8     9   ar
    20     9    10   ar
    21     8    11   ar
    22    29    11    1
    23    29    30    1
    24    30    31    1
    25    31    32    1
    26    31    33    1
    27    11    12   ar
    28    12    13    2
    29    12    14   ar
    30    14    15    1
    31    19    20   ar
    32    20    21   ar
    33    21    16   ar
    34    10     1   ar
    35    33    29    1
    36     9     4   ar
    37    14     7   ar
    38    32    34    1
@<TRIPOS>MOLECULE
*****
 34 38 0 0 0
SMALL
GASTEIGER

@<TRIPOS>ATOM
      1 C         142.1606  143.6479  163.3093 C.ar    1  UNL1        0.0016
      2 C         143.4715  144.2333  163.7439 C.ar    1  UNL1        0.0016
      3 C         144.0160  143.9238  165.1068 C.ar    1  UNL1        0.0191
      4 C         143.2497  143.0288  166.0351 C.ar    1  UNL1        0.0828
      5 N         143.7943  142.7193  167.3981 N.ar    1  UNL1       -0.2422
      6 C         143.0280  141.8243  168.3265 C.ar    1  UNL1        0.1175
      7 C         141.7171  141.2389  167.8918 C.ar    1  UNL1        0.0989
      8 C         141.1725  141.5485  166.5289 C.ar    1  UNL1        0.0826
      9 C         141.9388  142.4434  165.6006 C.ar    1  UNL1        0.0350
     10 C         141.3943  142.7530  164.2377 C.ar    1  UNL1        0.0030
     11 N         139.8637  140.8313  166.3789 N.ar    1  UNL1       -0.2815
     12 C         139.5993  140.0785  167.6491 C.ar    1  UNL1        0.3316
     13 O         138.4000  139.2238  167.9342 O.2     1  UNL1       -0.2463
     14 N         140.7448  140.3304  168.5842 N.ar    1  UNL1       -0.2765
     15 C         140.8922  139.7719  169.9685 C.3     1  UNL1        0.1352
     16 C         140.5267  144.5765  159.2204 C.ar    1  UNL1        0.2249
     17 C         141.8343  143.8547  159.3594 C.ar    1  UNL1        0.0577
     18 C         142.3789  143.5451  160.7224 C.ar    1  UNL1        0.0063
     19 C         141.6160  143.9575  161.9463 C.ar    1  UNL1        0.0194
     20 C         140.3085  144.6793  161.8073 C.ar    1  UNL1        0.1020
     21 N         139.7638  144.9889  160.4444 N.ar    1  UNL1       -0.2101
     22 O         139.9821  144.8861  157.8575 O.3     1  UNL1       -0.4602
     23 C         139.3321  143.8047  157.0463 C.3     1  UNL1        0.2085
     24 C         138.6253  142.6739  157.7332 C.3     1  UNL1        0.0647
     25 C         137.3961  142.0736  157.1179 C.3     1  UNL1        0.0760
     26 C         138.0985  140.8653  154.9278 C.3     1  UNL1        0.0897
     27 N         137.2995  141.9239  155.6286 N.3     1  UNL1       -0.2702
     28 C         136.4040  142.8328  154.8400 C.3     1  UNL1        0.0897
     29 C         138.9752  140.8616  165.1707 C.3     1  UNL1        0.0947
     30 C         137.9775  141.8324  164.6120 C.3     1  UNL1        0.0521
     31 C         137.7186  140.9045  163.4621 C.3     1  UNL1        0.1143
     32 O         136.8301  140.9348  162.2540 O.3     1  UNL1       -0.3843
     33 C         138.7163  139.9337  164.0209 C.3     1  UNL1        0.0521
     34 H         136.9571  140.1228  161.7388 H       1  UNL1        0.2103
@<TRIPOS>BOND
     1    26    27    1
     2    27    28    1
     3    27    25    1
     4    25    24    1
     5    24    23    1
     6    23    22    1
     7    22    16    1
     8    16    17   ar
     9    17    18   ar
    10    18    19   ar
    11    19     1    1
    12     1     2   ar
    13     2     3   ar
    14     3     4   ar
    15     4     5   ar
    16     5     6   ar
    17     6     7   ar
    18     7     8   ar
    19     8     9   ar
    20     9    10   ar
    21     8    11   ar
    22    29    11    1
    23    29    30    1
    24    30    31    1
    25    31    32    1
    26    31    33    1
    27    11    12   ar
    28    12    13    2
    29    12    14   ar
    30    14    15    1
    31    19    20   ar
    32    20    21   ar
    33    21    16   ar
    34    10     1   ar
    35    33    29    1
    36     9     4   ar
    37    14     7   ar
    38    32    34    1
@<TRIPOS>MOLECULE
*****
 34 38 0 0 0
SMALL
GASTEIGER

@<TRIPOS>ATOM
      1 C         143.3176  141.3029  163.5792 C.ar    1  UNL1        0.0016
      2 C         144.2772  142.2707  164.2057 C.ar    1  UNL1        0.0016
      3 C         144.0998  142.6823  165.6371 C.ar    1  UNL1        0.0191
      4 C         142.9628  142.1262  166.4421 C.ar    1  UNL1        0.0828
      5 N         142.7855  142.5379  167.8736 N.ar    1  UNL1       -0.2422
      6 C         141.6485  141.9818  168.6786 C.ar    1  UNL1        0.1175
      7 C         140.6888  141.0140  168.0520 C.ar    1  UNL1        0.0989
      8 C         140.8662  140.6023  166.6206 C.ar    1  UNL1        0.0826
      9 C         142.0032  141.1584  165.8156 C.ar    1  UNL1        0.0350
     10 C         142.1806  140.7468  164.3842 C.ar    1  UNL1        0.0030
     11 N         139.7698  139.6384  166.2762 N.ar    1  UNL1       -0.2815
     12 C         138.9148  139.4543  167.4949 C.ar    1  UNL1        0.3316
     13 O         137.7042  138.5744  167.5979 O.2     1  UNL1       -0.2463
     14 N         139.4828  140.3045  168.5924 N.ar    1  UNL1       -0.2765
     15 C         138.9401  140.4241  169.9856 C.3     1  UNL1        0.1352
     16 C         143.8496  140.0679  159.2848 C.ar    1  UNL1        0.2249
     17 C         143.8904  139.0359  160.3725 C.ar    1  UNL1        0.0577
     18 C         143.7130  139.4476  161.8040 C.ar    1  UNL1        0.0063
     19 C         143.4949  140.8912  162.1477 C.ar    1  UNL1        0.0194
     20 C         143.4542  141.9233  161.0600 C.ar    1  UNL1        0.1020
     21 N         143.6315  141.5117  159.6285 N.ar    1  UNL1       -0.2101
     22 O         144.0269  139.6563  157.8533 O.3     1  UNL1       -0.4602
     23 C         143.5559  140.5569  156.7502 C.3     1  UNL1        0.2085
     24 C         144.5521  141.2133  155.8408 C.3     1  UNL1        0.0647
     25 C         145.9844  141.3438  156.2669 C.3     1  UNL1        0.0760
     26 C         146.7219  141.4997  153.7805 C.3     1  UNL1        0.0897
     27 N         147.0535  141.5787  155.2413 N.3     1  UNL1       -0.2702
     28 C         148.4542  141.8928  155.6765 C.3     1  UNL1        0.0897
     29 C         139.5644  138.9750  164.9467 C.3     1  UNL1        0.0947
     30 C         138.7586  139.2848  163.7200 C.3     1  UNL1        0.0521
     31 C         139.2739  138.0369  163.0663 C.3     1  UNL1        0.1143
     32 O         139.0686  137.3736  161.7368 O.3     1  UNL1       -0.3843
     33 C         140.0798  137.7271  164.2930 C.3     1  UNL1        0.0521
     34 H         139.5939  136.5591  161.6972 H       1  UNL1        0.2103
@<TRIPOS>BOND
     1    26    27    1
     2    27    28    1
     3    27    25    1
     4    25    24    1
     5    24    23    1
     6    23    22    1
     7    22    16    1
     8    16    17   ar
     9    17    18   ar
    10    18    19   ar
    11    19     1    1
    12     1     2   ar
    13     2     3   ar
    14     3     4   ar
    15     4     5   ar
    16     5     6   ar
    17     6     7   ar
    18     7     8   ar
    19     8     9   ar
    20     9    10   ar
    21     8    11   ar
    22    29    11    1
    23    29    30    1
    24    30    31    1
    25    31    32    1
    26    31    33    1
    27    11    12   ar
    28    12    13    2
    29    12    14   ar
    30    14    15    1
    31    19    20   ar
    32    20    21   ar
    33    21    16   ar
    34    10     1   ar
    35    33    29    1
    36     9     4   ar
    37    14     7   ar
    38    32    34    1
