@<TRIPOS>MOLECULE
*****
 32 34 0 0 0
SMALL
GASTEIGER

@<TRIPOS>ATOM
      1 C         142.7321  138.3997  163.2842 C.3     1  UNL1        0.1875
      2 C         141.6912  141.9210  164.7897 C.ar    1  UNL1        0.1313
      3 C         141.4835  141.5627  166.2314 C.ar    1  UNL1        0.0382
      4 C         141.6921  140.1501  166.6907 C.ar    1  UNL1        0.0754
      5 C         142.1083  139.0958  165.7083 C.ar    1  UNL1        0.0212
      6 C         142.3159  139.4540  164.2666 C.ar    1  UNL1        0.0901
      7 N         142.1074  140.8667  163.8073 N.ar    1  UNL1       -0.2325
      8 C         141.4844  139.7919  168.1325 C.3     1  UNL1        0.4187
      9 F         141.2768  139.4336  169.5741 F       1  UNL1       -0.1659
     10 F         142.7110  138.9293  168.0947 F       1  UNL1       -0.1659
     11 F         140.2578  140.6544  168.1702 F       1  UNL1       -0.1659
     12 N         141.4826  143.3337  164.3304 N.pl3   1  UNL1       -0.2933
     13 C         139.2131  144.3637  165.0640 C.3     1  UNL1        0.0232
     14 C         140.1038  143.8154  163.9888 C.3     1  UNL1        0.0922
     15 C         142.6529  144.2645  164.2126 C.3     1  UNL1        0.0922
     16 C         144.0261  143.7946  164.5915 C.3     1  UNL1        0.0232
     17 O         141.7917  137.9763  162.1950 O.3     1  UNL1       -0.3470
     18 C         140.3348  137.7825  162.4953 C.3     1  UNL1        0.1467
     19 C         139.3207  138.7364  161.9373 C.3     1  UNL1        0.0489
     20 C         140.0502  138.3667  160.6799 C.3     1  UNL1        0.0238
     21 C         139.6345  138.9642  159.3683 C.3     1  UNL1        0.0725
     22 N         138.4893  139.9315  159.3142 N.3     1  UNL1       -0.2715
     23 C         138.0736  140.5291  158.0027 C.3     1  UNL1        0.0896
     24 C         137.7598  140.3013  160.5716 C.3     1  UNL1        0.0725
     25 C         138.1755  139.7037  161.8832 C.3     1  UNL1        0.0238
     26 C         138.9434  138.7749  163.3886 C.ar    1  UNL1       -0.0202
     27 C         138.9621  137.5147  164.2020 C.ar    1  UNL1       -0.0019
     28 C         138.5848  137.5532  165.6533 C.ar    1  UNL1        0.0293
     29 C         138.1889  138.8517  166.2911 C.ar    1  UNL1        0.1401
     30 F         137.8117  138.8903  167.7424 F       1  UNL1       -0.2042
     31 C         138.1703  140.1120  165.4777 C.ar    1  UNL1        0.0293
     32 C         138.5476  140.0735  164.0264 C.ar    1  UNL1       -0.0019
@<TRIPOS>BOND
     1    13    14    1
     2    14    12    1
     3    12    15    1
     4    15    16    1
     5    12     2    1
     6     2     3   ar
     7     3     4   ar
     8     4     8    1
     9     8     9    1
    10     8    10    1
    11     8    11    1
    12     4     5   ar
    13     5     6   ar
    14     6     1    1
    15     1    17    1
    16    17    18    1
    17    18    19    1
    18    19    26    1
    19    26    27   ar
    20    27    28   ar
    21    28    29   ar
    22    29    30    1
    23    29    31   ar
    24    31    32   ar
    25    19    20    1
    26    20    21    1
    27    21    22    1
    28    22    23    1
    29    22    24    1
    30    24    25    1
    31     6     7   ar
    32     7     2   ar
    33    25    19    1
    34    32    26   ar
@<TRIPOS>MOLECULE
*****
 32 34 0 0 0
SMALL
GASTEIGER

@<TRIPOS>ATOM
      1 C         142.1226  138.0130  163.8033 C.3     1  UNL1        0.1875
      2 C         139.0985  140.5784  163.9563 C.ar    1  UNL1        0.1313
      3 C         138.2203  139.9207  164.9790 C.ar    1  UNL1        0.0382
      4 C         138.6428  138.6271  165.6099 C.ar    1  UNL1        0.0754
      5 C         139.9436  137.9912  165.2181 C.ar    1  UNL1        0.0212
      6 C         140.8218  138.6489  164.1953 C.ar    1  UNL1        0.0901
      7 N         140.3993  139.9425  163.5644 N.ar    1  UNL1       -0.2325
      8 C         137.7645  137.9694  166.6328 C.3     1  UNL1        0.4187
      9 F         136.8863  137.3117  167.6555 F       1  UNL1       -0.1659
     10 F         138.0429  136.6325  166.0121 F       1  UNL1       -0.1659
     11 F         137.4862  139.3063  167.2534 F       1  UNL1       -0.1659
     12 N         138.6760  141.8720  163.3254 N.pl3   1  UNL1       -0.2933
     13 C         137.6510  140.5636  161.3285 C.3     1  UNL1        0.0232
     14 C         137.9421  141.8640  162.0172 C.3     1  UNL1        0.0922
     15 C         138.9873  143.1737  164.0026 C.3     1  UNL1        0.0922
     16 C         137.8768  144.0123  164.5625 C.3     1  UNL1        0.0232
     17 O         143.4159  138.5725  164.3174 O.3     1  UNL1       -0.3470
     18 C         143.4237  139.4421  165.5397 C.3     1  UNL1        0.1467
     19 C         143.1721  140.9154  165.4136 C.3     1  UNL1        0.0489
     20 C         144.0498  140.6977  164.2169 C.3     1  UNL1        0.0238
     21 C         144.4015  141.8512  163.3249 C.3     1  UNL1        0.0725
     22 N         143.8753  143.2225  163.6296 N.3     1  UNL1       -0.2715
     23 C         144.2270  144.3760  162.7376 C.3     1  UNL1        0.0896
     24 C         142.9976  143.4402  164.8263 C.3     1  UNL1        0.0725
     25 C         142.6459  142.2867  165.7183 C.3     1  UNL1        0.0238
     26 C         142.3817  140.6214  166.6541 C.ar    1  UNL1       -0.0202
     27 C         142.9098  139.6493  167.6671 C.ar    1  UNL1       -0.0019
     28 C         142.1193  139.3553  168.9076 C.ar    1  UNL1        0.0293
     29 C         140.8009  140.0334  169.1352 C.ar    1  UNL1        0.1401
     30 F         140.0105  139.7395  170.3756 F       1  UNL1       -0.2042
     31 C         140.2728  141.0056  168.1222 C.ar    1  UNL1        0.0293
     32 C         141.0633  141.2995  166.8817 C.ar    1  UNL1       -0.0019
@<TRIPOS>BOND
     1    13    14    1
     2    14    12    1
     3    12    15    1
     4    15    16    1
     5    12     2    1
     6     2     3   ar
     7     3     4   ar
     8     4     8    1
     9     8     9    1
    10     8    10    1
    11     8    11    1
    12     4     5   ar
    13     5     6   ar
    14     6     1    1
    15     1    17    1
    16    17    18    1
    17    18    19    1
    18    19    26    1
    19    26    27   ar
    20    27    28   ar
    21    28    29   ar
    22    29    30    1
    23    29    31   ar
    24    31    32   ar
    25    19    20    1
    26    20    21    1
    27    21    22    1
    28    22    23    1
    29    22    24    1
    30    24    25    1
    31     6     7   ar
    32     7     2   ar
    33    25    19    1
    34    32    26   ar
@<TRIPOS>MOLECULE
*****
 32 34 0 0 0
SMALL
GASTEIGER

@<TRIPOS>ATOM
      1 C         143.4175  139.6251  164.9634 C.3     1  UNL1        0.1875
      2 C         141.0176  142.7764  165.2089 C.ar    1  UNL1        0.1313
      3 C         140.3343  142.5110  166.5176 C.ar    1  UNL1        0.0382
      4 C         140.6788  141.2837  167.3082 C.ar    1  UNL1        0.0754
      5 C         141.7065  140.3218  166.7902 C.ar    1  UNL1        0.0212
      6 C         142.3897  140.5871  165.4815 C.ar    1  UNL1        0.0901
      7 N         142.0453  141.8144  164.6909 N.ar    1  UNL1       -0.2325
      8 C         139.9955  141.0184  168.6170 C.3     1  UNL1        0.4187
      9 F         139.3122  140.7532  169.9257 F       1  UNL1       -0.1659
     10 F         140.0207  142.4857  168.9276 F       1  UNL1       -0.1659
     11 F         139.9702  139.5512  168.3064 F       1  UNL1       -0.1659
     12 N         140.6732  144.0037  164.4183 N.pl3   1  UNL1       -0.2933
     13 C         138.0997  144.1043  164.0761 C.3     1  UNL1        0.0232
     14 C         139.3595  144.6934  164.6383 C.3     1  UNL1        0.0922
     15 C         141.6424  144.5413  163.4076 C.3     1  UNL1        0.0922
     16 C         142.8788  145.2589  163.8619 C.3     1  UNL1        0.0232
     17 O         143.2155  138.9541  163.6372 O.3     1  UNL1       -0.3470
     18 C         142.0306  138.0598  163.4219 C.3     1  UNL1        0.1467
     19 C         141.1034  138.3078  162.2691 C.3     1  UNL1        0.0489
     20 C         142.3781  138.0398  161.5253 C.3     1  UNL1        0.0238
     21 C         142.3948  138.0829  160.0260 C.3     1  UNL1        0.0725
     22 N         141.1368  138.3940  159.2706 N.3     1  UNL1       -0.2715
     23 C         141.1535  138.4372  157.7713 C.3     1  UNL1        0.0896
     24 C         139.8621  138.6621  160.0144 C.3     1  UNL1        0.0725
     25 C         139.8454  138.6189  161.5137 C.3     1  UNL1        0.0238
     26 C         140.1507  138.4897  163.4134 C.ar    1  UNL1       -0.0202
     27 C         139.9954  137.4066  164.4394 C.ar    1  UNL1       -0.0019
     28 C         139.0427  137.5885  165.5837 C.ar    1  UNL1        0.0293
     29 C         138.2454  138.8535  165.7019 C.ar    1  UNL1        0.1401
     30 F         137.2927  139.0355  166.8461 F       1  UNL1       -0.2042
     31 C         138.4007  139.9367  164.6758 C.ar    1  UNL1        0.0293
     32 C         139.3534  139.7547  163.5316 C.ar    1  UNL1       -0.0019
@<TRIPOS>BOND
     1    13    14    1
     2    14    12    1
     3    12    15    1
     4    15    16    1
     5    12     2    1
     6     2     3   ar
     7     3     4   ar
     8     4     8    1
     9     8     9    1
    10     8    10    1
    11     8    11    1
    12     4     5   ar
    13     5     6   ar
    14     6     1    1
    15     1    17    1
    16    17    18    1
    17    18    19    1
    18    19    26    1
    19    26    27   ar
    20    27    28   ar
    21    28    29   ar
    22    29    30    1
    23    29    31   ar
    24    31    32   ar
    25    19    20    1
    26    20    21    1
    27    21    22    1
    28    22    23    1
    29    22    24    1
    30    24    25    1
    31     6     7   ar
    32     7     2   ar
    33    25    19    1
    34    32    26   ar
@<TRIPOS>MOLECULE
*****
 32 34 0 0 0
SMALL
GASTEIGER

@<TRIPOS>ATOM
      1 C         138.4022  142.5012  164.4169 C.3     1  UNL1        0.1875
      2 C         139.6373  138.9141  163.2518 C.ar    1  UNL1        0.1313
      3 C         139.0937  138.0551  164.3548 C.ar    1  UNL1        0.0382
      4 C         138.3196  138.6781  165.4784 C.ar    1  UNL1        0.0754
      5 C         138.0891  140.1601  165.4992 C.ar    1  UNL1        0.0212
      6 C         138.6327  141.0191  164.3962 C.ar    1  UNL1        0.0901
      7 N         139.4068  140.3961  163.2726 N.ar    1  UNL1       -0.2325
      8 C         137.7759  137.8190  166.5814 C.3     1  UNL1        0.4187
      9 F         137.2323  136.9600  167.6843 F       1  UNL1       -0.1659
     10 F         137.4259  139.0483  167.3663 F       1  UNL1       -0.1659
     11 F         138.1260  136.5896  165.7965 F       1  UNL1       -0.1659
     12 N         140.4114  138.2911  162.1282 N.pl3   1  UNL1       -0.2933
     13 C         142.9003  138.5799  162.8152 C.3     1  UNL1        0.0232
     14 C         141.7645  137.6982  162.3879 C.3     1  UNL1        0.0922
     15 C         139.8325  138.2611  160.7448 C.3     1  UNL1        0.0922
     16 C         140.5183  138.9919  159.6287 C.3     1  UNL1        0.0232
     17 O         139.5618  143.4383  164.5812 O.3     1  UNL1       -0.3470
     18 C         140.4833  143.2927  165.7559 C.3     1  UNL1        0.1467
     19 C         141.7460  142.4939  165.6241 C.3     1  UNL1        0.0489
     20 C         141.8620  143.3668  164.4099 C.3     1  UNL1        0.0238
     21 C         143.0482  143.2341  163.5014 C.3     1  UNL1        0.0725
     22 N         144.1183  142.2284  163.8072 N.3     1  UNL1       -0.2715
     23 C         145.3045  142.0957  162.8987 C.3     1  UNL1        0.0896
     24 C         144.0023  141.3555  165.0214 C.3     1  UNL1        0.0725
     25 C         142.8161  141.4882  165.9299 C.3     1  UNL1        0.0238
     26 C         141.1913  141.8983  166.8842 C.ar    1  UNL1       -0.0202
     27 C         140.6462  142.7913  167.9591 C.ar    1  UNL1       -0.0019
     28 C         140.0916  142.1958  169.2192 C.ar    1  UNL1        0.0293
     29 C         140.0821  140.7074  169.4044 C.ar    1  UNL1        0.1401
     30 F         139.5276  140.1118  170.6644 F       1  UNL1       -0.2042
     31 C         140.6273  139.8143  168.3295 C.ar    1  UNL1        0.0293
     32 C         141.1819  140.4099  167.0694 C.ar    1  UNL1       -0.0019
@<TRIPOS>BOND
     1    13    14    1
     2    14    12    1
     3    12    15    1
     4    15    16    1
     5    12     2    1
     6     2     3   ar
     7     3     4   ar
     8     4     8    1
     9     8     9    1
    10     8    10    1
    11     8    11    1
    12     4     5   ar
    13     5     6   ar
    14     6     1    1
    15     1    17    1
    16    17    18    1
    17    18    19    1
    18    19    26    1
    19    26    27   ar
    20    27    28   ar
    21    28    29   ar
    22    29    30    1
    23    29    31   ar
    24    31    32   ar
    25    19    20    1
    26    20    21    1
    27    21    22    1
    28    22    23    1
    29    22    24    1
    30    24    25    1
    31     6     7   ar
    32     7     2   ar
    33    25    19    1
    34    32    26   ar
@<TRIPOS>MOLECULE
*****
 32 34 0 0 0
SMALL
GASTEIGER

@<TRIPOS>ATOM
      1 C         142.8614  139.7731  164.5782 C.3     1  UNL1        0.1875
      2 C         139.4461  139.5022  162.5751 C.ar    1  UNL1        0.1313
      3 C         138.5352  138.9656  163.6392 C.ar    1  UNL1        0.0382
      4 C         139.0663  138.6982  165.0163 C.ar    1  UNL1        0.0754
      5 C         140.5083  138.9673  165.3293 C.ar    1  UNL1        0.0212
      6 C         141.4192  139.5039  164.2652 C.ar    1  UNL1        0.0901
      7 N         140.8881  139.7713  162.8881 N.ar    1  UNL1       -0.2325
      8 C         138.1553  138.1616  166.0804 C.3     1  UNL1        0.4187
      9 F         137.2443  137.6251  167.1444 F       1  UNL1       -0.1659
     10 F         137.7692  139.5616  166.4557 F       1  UNL1       -0.1659
     11 F         138.5414  136.7616  165.7050 F       1  UNL1       -0.1659
     12 N         138.9150  139.7696  161.1980 N.pl3   1  UNL1       -0.2933
     13 C         138.8041  142.2281  160.3655 C.3     1  UNL1        0.0232
     14 C         138.1241  141.0152  160.9280 C.3     1  UNL1        0.0922
     15 C         139.1747  138.7914  160.0910 C.3     1  UNL1        0.0922
     16 C         140.3855  138.9488  159.2197 C.3     1  UNL1        0.0232
     17 O         143.2483  141.0192  165.3182 O.3     1  UNL1       -0.3470
     18 C         142.2974  142.1774  165.3854 C.3     1  UNL1        0.1467
     19 C         141.5240  142.4408  166.6433 C.3     1  UNL1        0.0489
     20 C         142.7792  141.8618  167.2256 C.3     1  UNL1        0.0238
     21 C         142.9183  141.7155  168.7120 C.3     1  UNL1        0.0725
     22 N         141.8023  142.1482  169.6160 N.3     1  UNL1       -0.2715
     23 C         141.9414  142.0019  171.1023 C.3     1  UNL1        0.0896
     24 C         140.5471  142.7273  169.0336 C.3     1  UNL1        0.0725
     25 C         140.4079  142.8736  167.5473 C.3     1  UNL1        0.0238
     26 C         140.5374  142.9284  165.6240 C.ar    1  UNL1       -0.0202
     27 C         140.9134  144.0377  164.6870 C.ar    1  UNL1       -0.0019
     28 C         139.9268  144.5253  163.6677 C.ar    1  UNL1        0.0293
     29 C         138.5642  143.9036  163.5855 C.ar    1  UNL1        0.1401
     30 F         137.5776  144.3911  162.5663 F       1  UNL1       -0.2042
     31 C         138.1882  142.7942  164.5226 C.ar    1  UNL1        0.0293
     32 C         139.1748  142.3067  165.5418 C.ar    1  UNL1       -0.0019
@<TRIPOS>BOND
     1    13    14    1
     2    14    12    1
     3    12    15    1
     4    15    16    1
     5    12     2    1
     6     2     3   ar
     7     3     4   ar
     8     4     8    1
     9     8     9    1
    10     8    10    1
    11     8    11    1
    12     4     5   ar
    13     5     6   ar
    14     6     1    1
    15     1    17    1
    16    17    18    1
    17    18    19    1
    18    19    26    1
    19    26    27   ar
    20    27    28   ar
    21    28    29   ar
    22    29    30    1
    23    29    31   ar
    24    31    32   ar
    25    19    20    1
    26    20    21    1
    27    21    22    1
    28    22    23    1
    29    22    24    1
    30    24    25    1
    31     6     7   ar
    32     7     2   ar
    33    25    19    1
    34    32    26   ar
@<TRIPOS>MOLECULE
*****
 32 34 0 0 0
SMALL
GASTEIGER

@<TRIPOS>ATOM
      1 C         139.6104  142.3963  164.1580 C.3     1  UNL1        0.1875
      2 C         140.3238  141.2102  167.8774 C.ar    1  UNL1        0.1313
      3 C         139.5284  139.9395  167.9272 C.ar    1  UNL1        0.0382
      4 C         138.7604  139.4877  166.7206 C.ar    1  UNL1        0.0754
      5 C         138.7877  140.3066  165.4642 C.ar    1  UNL1        0.0212
      6 C         139.5831  141.5773  165.4144 C.ar    1  UNL1        0.0901
      7 N         140.3512  142.0291  166.6211 N.ar    1  UNL1       -0.2325
      8 C         137.9650  138.2168  166.7704 C.3     1  UNL1        0.4187
      9 F         137.1696  136.9461  166.8201 F       1  UNL1       -0.1659
     10 F         138.5832  137.7792  165.4757 F       1  UNL1       -0.1659
     11 F         137.3467  138.6545  168.0650 F       1  UNL1       -0.1659
     12 N         141.0919  141.6620  169.0841 N.pl3   1  UNL1       -0.2933
     13 C         143.5994  142.2432  169.4372 C.3     1  UNL1        0.0232
     14 C         142.5128  141.2217  169.2768 C.3     1  UNL1        0.0922
     15 C         140.4391  142.5541  170.0979 C.3     1  UNL1        0.0922
     16 C         140.3103  144.0245  169.8307 C.3     1  UNL1        0.0232
     17 O         140.0369  141.7699  162.8635 O.3     1  UNL1       -0.3470
     18 C         141.4742  141.3993  162.6473 C.3     1  UNL1        0.1467
     19 C         141.8214  140.1257  161.9350 C.3     1  UNL1        0.0489
     20 C         141.3690  140.9591  160.7729 C.3     1  UNL1        0.0238
     21 C         141.3790  140.3831  159.3879 C.3     1  UNL1        0.0725
     22 N         141.8414  138.9736  159.1652 N.3     1  UNL1       -0.2715
     23 C         141.8514  138.3976  157.7802 C.3     1  UNL1        0.0896
     24 C         142.2938  138.1402  160.3274 C.3     1  UNL1        0.0725
     25 C         142.2838  138.7162  161.7123 C.3     1  UNL1        0.0238
     26 C         142.1533  139.7346  163.3447 C.ar    1  UNL1       -0.0202
     27 C         141.6214  138.4520  163.9121 C.ar    1  UNL1       -0.0019
     28 C         141.9532  138.0609  165.3217 C.ar    1  UNL1        0.0293
     29 C         142.8169  138.9524  166.1638 C.ar    1  UNL1        0.1401
     30 F         143.1488  138.5614  167.5734 F       1  UNL1       -0.2042
     31 C         143.3489  140.2351  165.5963 C.ar    1  UNL1        0.0293
     32 C         143.0170  140.6261  164.1867 C.ar    1  UNL1       -0.0019
@<TRIPOS>BOND
     1    13    14    1
     2    14    12    1
     3    12    15    1
     4    15    16    1
     5    12     2    1
     6     2     3   ar
     7     3     4   ar
     8     4     8    1
     9     8     9    1
    10     8    10    1
    11     8    11    1
    12     4     5   ar
    13     5     6   ar
    14     6     1    1
    15     1    17    1
    16    17    18    1
    17    18    19    1
    18    19    26    1
    19    26    27   ar
    20    27    28   ar
    21    28    29   ar
    22    29    30    1
    23    29    31   ar
    24    31    32   ar
    25    19    20    1
    26    20    21    1
    27    21    22    1
    28    22    23    1
    29    22    24    1
    30    24    25    1
    31     6     7   ar
    32     7     2   ar
    33    25    19    1
    34    32    26   ar
@<TRIPOS>MOLECULE
*****
 32 34 0 0 0
SMALL
GASTEIGER

@<TRIPOS>ATOM
      1 C         142.0295  143.1313  164.4078 C.3     1  UNL1        0.1875
      2 C         142.1103  139.6925  162.4284 C.ar    1  UNL1        0.1313
      3 C         142.9219  138.8460  163.3638 C.ar    1  UNL1        0.0382
      4 C         143.4360  139.4280  164.6471 C.ar    1  UNL1        0.0754
      5 C         143.1385  140.8564  164.9951 C.ar    1  UNL1        0.0212
      6 C         142.3270  141.7029  164.0598 C.ar    1  UNL1        0.0901
      7 N         141.8129  141.1209  162.7764 N.ar    1  UNL1       -0.2325
      8 C         144.2476  138.5815  165.5825 C.3     1  UNL1        0.4187
      9 F         145.0590  137.7350  166.5179 F       1  UNL1       -0.1659
     10 F         142.9934  138.1601  166.2892 F       1  UNL1       -0.1659
     11 F         145.5017  139.0029  164.8758 F       1  UNL1       -0.1659
     12 N         141.5962  139.1105  161.1451 N.pl3   1  UNL1       -0.2933
     13 C         142.8072  137.9192  159.1793 C.3     1  UNL1        0.0232
     14 C         142.2388  137.8846  160.5670 C.3     1  UNL1        0.0922
     15 C         140.4396  139.7544  160.4398 C.3     1  UNL1        0.0922
     16 C         139.2936  138.9151  159.9578 C.3     1  UNL1        0.0232
     17 O         140.9491  143.4529  165.3973 O.3     1  UNL1       -0.3470
     18 C         139.8525  142.4632  165.6585 C.3     1  UNL1        0.1467
     19 C         139.9163  141.5742  166.8650 C.3     1  UNL1        0.0489
     20 C         140.3000  142.8844  167.4862 C.3     1  UNL1        0.0238
     21 C         140.6065  142.9578  168.9527 C.3     1  UNL1        0.0725
     22 N         140.5293  141.7210  169.7980 N.3     1  UNL1       -0.2715
     23 C         140.8358  141.7945  171.2645 C.3     1  UNL1        0.0896
     24 C         140.1456  140.4108  169.1767 C.3     1  UNL1        0.0725
     25 C         139.8391  140.3374  167.7102 C.3     1  UNL1        0.0238
     26 C         139.5104  140.5727  165.8246 C.ar    1  UNL1       -0.0202
     27 C         139.9832  139.1528  165.9257 C.ar    1  UNL1       -0.0019
     28 C         139.5774  138.1512  164.8854 C.ar    1  UNL1        0.0293
     29 C         138.6987  138.5696  163.7440 C.ar    1  UNL1        0.1401
     30 F         138.2928  137.5682  162.7036 F       1  UNL1       -0.2042
     31 C         138.2258  139.9897  163.6429 C.ar    1  UNL1        0.0293
     32 C         138.6317  140.9911  164.6832 C.ar    1  UNL1       -0.0019
@<TRIPOS>BOND
     1    13    14    1
     2    14    12    1
     3    12    15    1
     4    15    16    1
     5    12     2    1
     6     2     3   ar
     7     3     4   ar
     8     4     8    1
     9     8     9    1
    10     8    10    1
    11     8    11    1
    12     4     5   ar
    13     5     6   ar
    14     6     1    1
    15     1    17    1
    16    17    18    1
    17    18    19    1
    18    19    26    1
    19    26    27   ar
    20    27    28   ar
    21    28    29   ar
    22    29    30    1
    23    29    31   ar
    24    31    32   ar
    25    19    20    1
    26    20    21    1
    27    21    22    1
    28    22    23    1
    29    22    24    1
    30    24    25    1
    31     6     7   ar
    32     7     2   ar
    33    25    19    1
    34    32    26   ar
@<TRIPOS>MOLECULE
*****
 32 34 0 0 0
SMALL
GASTEIGER

@<TRIPOS>ATOM
      1 C         143.6007  145.0218  163.8637 C.3     1  UNL1        0.1875
      2 C         140.8342  144.4806  161.0702 C.ar    1  UNL1        0.1313
      3 C         139.5904  144.4388  161.9074 C.ar    1  UNL1        0.0382
      4 C         139.6832  144.5914  163.3967 C.ar    1  UNL1        0.0754
      5 C         141.0200  144.7857  164.0488 C.ar    1  UNL1        0.0212
      6 C         142.2639  144.8275  163.2116 C.ar    1  UNL1        0.0901
      7 N         142.1710  144.6749  161.7223 N.ar    1  UNL1       -0.2325
      8 C         138.4393  144.5496  164.2340 C.3     1  UNL1        0.4187
      9 F         137.1954  144.5078  165.0711 F       1  UNL1       -0.1659
     10 F         137.6874  143.9430  163.0865 F       1  UNL1       -0.1659
     11 F         139.1911  145.1562  165.3814 F       1  UNL1       -0.1659
     12 N         140.7414  144.3280  159.5809 N.pl3   1  UNL1       -0.2933
     13 C         141.8655  142.0384  159.0873 C.3     1  UNL1        0.0232
     14 C         140.6876  142.9596  158.9690 C.3     1  UNL1        0.0922
     15 C         140.7022  145.5439  158.7034 C.3     1  UNL1        0.0922
     16 C         141.8406  145.8323  157.7701 C.3     1  UNL1        0.0232
     17 O         144.4514  143.8329  164.1994 O.3     1  UNL1       -0.3470
     18 C         144.0239  142.8863  165.2817 C.3     1  UNL1        0.1467
     19 C         143.4278  141.5574  164.9235 C.3     1  UNL1        0.0489
     20 C         144.5006  141.6515  163.8795 C.3     1  UNL1        0.0238
     21 C         144.6767  140.5442  162.8830 C.3     1  UNL1        0.0725
     22 N         143.7798  139.3428  162.9306 N.3     1  UNL1       -0.2715
     23 C         143.9558  138.2356  161.9341 C.3     1  UNL1        0.0896
     24 C         142.7069  139.2487  163.9746 C.3     1  UNL1        0.0725
     25 C         142.5309  140.3559  164.9711 C.3     1  UNL1        0.0238
     26 C         142.5619  141.9248  166.0920 C.ar    1  UNL1       -0.0202
     27 C         141.0777  142.0512  165.9153 C.ar    1  UNL1       -0.0019
     28 C         140.2119  142.4186  167.0837 C.ar    1  UNL1        0.0293
     29 C         140.8302  142.6596  168.4289 C.ar    1  UNL1        0.1401
     30 F         139.9644  143.0271  169.5974 F       1  UNL1       -0.2042
     31 C         142.3144  142.5333  168.6057 C.ar    1  UNL1        0.0293
     32 C         143.1802  142.1658  167.4372 C.ar    1  UNL1       -0.0019
@<TRIPOS>BOND
     1    13    14    1
     2    14    12    1
     3    12    15    1
     4    15    16    1
     5    12     2    1
     6     2     3   ar
     7     3     4   ar
     8     4     8    1
     9     8     9    1
    10     8    10    1
    11     8    11    1
    12     4     5   ar
    13     5     6   ar
    14     6     1    1
    15     1    17    1
    16    17    18    1
    17    18    19    1
    18    19    26    1
    19    26    27   ar
    20    27    28   ar
    21    28    29   ar
    22    29    30    1
    23    29    31   ar
    24    31    32   ar
    25    19    20    1
    26    20    21    1
    27    21    22    1
    28    22    23    1
    29    22    24    1
    30    24    25    1
    31     6     7   ar
    32     7     2   ar
    33    25    19    1
    34    32    26   ar
@<TRIPOS>MOLECULE
*****
 32 34 0 0 0
SMALL
GASTEIGER

@<TRIPOS>ATOM
      1 C         143.5913  140.4288  164.1695 C.3     1  UNL1        0.1875
      2 C         140.8119  143.0251  163.0360 C.ar    1  UNL1        0.1313
      3 C         140.1849  142.2870  161.8906 C.ar    1  UNL1        0.0382
      4 C         140.6933  140.9296  161.5048 C.ar    1  UNL1        0.0754
      5 C         141.8287  140.3102  162.2644 C.ar    1  UNL1        0.0212
      6 C         142.4558  141.0482  163.4098 C.ar    1  UNL1        0.0901
      7 N         141.9474  142.4057  163.7956 N.ar    1  UNL1       -0.2325
      8 C         140.0662  140.1915  160.3592 C.3     1  UNL1        0.4187
      9 F         139.4392  139.4535  159.2138 F       1  UNL1       -0.1659
     10 F         140.9850  139.0314  160.6038 F       1  UNL1       -0.1659
     11 F         139.1474  141.3517  160.1147 F       1  UNL1       -0.1659
     12 N         140.3035  144.3825  163.4218 N.pl3   1  UNL1       -0.2933
     13 C         139.6928  146.2697  161.7439 C.3     1  UNL1        0.0232
     14 C         140.7001  145.5874  162.6212 C.3     1  UNL1        0.0922
     15 C         139.3985  144.5351  164.6083 C.3     1  UNL1        0.0922
     16 C         137.9812  144.0491  164.5379 C.3     1  UNL1        0.0232
     17 O         143.3711  139.9168  165.5621 O.3     1  UNL1       -0.3470
     18 C         142.1680  139.0756  165.8705 C.3     1  UNL1        0.1467
     19 C         141.1668  139.5420  166.8854 C.3     1  UNL1        0.0489
     20 C         142.4202  139.6073  167.7068 C.3     1  UNL1        0.0238
     21 C         142.3579  140.0602  169.1354 C.3     1  UNL1        0.0725
     22 N         141.0421  140.4477  169.7426 N.3     1  UNL1       -0.2715
     23 C         140.9798  140.9005  171.1713 C.3     1  UNL1        0.0896
     24 C         139.7887  140.3823  168.9212 C.3     1  UNL1        0.0725
     25 C         139.8511  139.9295  167.4926 C.3     1  UNL1        0.0238
     26 C         140.2611  139.3146  165.7114 C.ar    1  UNL1       -0.0202
     27 C         140.3565  138.0400  164.9264 C.ar    1  UNL1       -0.0019
     28 C         139.4508  137.8126  163.7525 C.ar    1  UNL1        0.0293
     29 C         138.4498  138.8598  163.3636 C.ar    1  UNL1        0.1401
     30 F         137.5441  138.6325  162.1897 F       1  UNL1       -0.2042
     31 C         138.3544  140.1345  164.1487 C.ar    1  UNL1        0.0293
     32 C         139.2601  140.3618  165.3225 C.ar    1  UNL1       -0.0019
@<TRIPOS>BOND
     1    13    14    1
     2    14    12    1
     3    12    15    1
     4    15    16    1
     5    12     2    1
     6     2     3   ar
     7     3     4   ar
     8     4     8    1
     9     8     9    1
    10     8    10    1
    11     8    11    1
    12     4     5   ar
    13     5     6   ar
    14     6     1    1
    15     1    17    1
    16    17    18    1
    17    18    19    1
    18    19    26    1
    19    26    27   ar
    20    27    28   ar
    21    28    29   ar
    22    29    30    1
    23    29    31   ar
    24    31    32   ar
    25    19    20    1
    26    20    21    1
    27    21    22    1
    28    22    23    1
    29    22    24    1
    30    24    25    1
    31     6     7   ar
    32     7     2   ar
    33    25    19    1
    34    32    26   ar
