@<TRIPOS>MOLECULE
*****
 35 39 0 0 0
SMALL
GASTEIGER

@<TRIPOS>ATOM
      1 C         143.9494  137.7590  166.6496 C.3     1  UNL1        0.0323
      2 C         143.1441  139.0091  166.4526 C.ar    1  UNL1       -0.0060
      3 C         142.5180  139.8347  167.5371 C.ar    1  UNL1        0.0438
      4 C         141.8104  140.9889  166.8913 C.ar    1  UNL1        0.0435
      5 N         141.9992  140.8766  165.4074 N.ar    1  UNL1       -0.3137
      6 C         142.8234  139.6531  165.1363 C.ar    1  UNL1        0.0372
      7 C         143.5211  138.6995  164.2121 C.3     1  UNL1        0.0452
      8 C         143.9322  138.2345  162.8466 C.3     1  UNL1        0.0235
      9 C         143.9628  138.3644  161.3525 C.3     1  UNL1        0.0725
     10 N         143.3589  139.4526  159.9284 N.3     1  UNL1       -0.2726
     11 C         143.4294  139.5220  158.4317 C.3     1  UNL1        0.0722
     12 C         142.6674  140.7354  157.9877 C.3     1  UNL1        0.0204
     13 C         142.1259  141.4157  159.2099 C.3     1  UNL1        0.0369
     14 C         141.3422  142.5368  159.8254 C.3     1  UNL1        0.0884
     15 N         140.7712  143.2674  161.0046 N.pl3   1  UNL1       -0.3325
     16 C         140.5437  143.4399  162.4772 C.ar    1  UNL1        0.0505
     17 C         140.7119  143.0149  163.9058 C.ar    1  UNL1        0.0319
     18 C         141.2372  142.0899  164.9633 C.ar    1  UNL1        0.0646
     19 C         140.4161  143.2807  165.4702 C.ar    1  UNL1        0.0177
     20 C         139.7339  144.4053  164.7491 C.ar    1  UNL1        0.0072
     21 C         139.7976  144.4849  163.2527 C.ar    1  UNL1        0.0663
     22 C         142.5533  140.6229  160.4094 C.3     1  UNL1        0.0738
     23 C         141.0856  141.9930  167.7377 C.3     1  UNL1        0.0446
     24 C         141.0684  141.8430  169.2300 C.3     1  UNL1        0.0128
     25 C         140.7694  142.1281  170.6720 C.3     1  UNL1        0.0008
     26 C         140.2570  143.0961  169.0849 C.3     1  UNL1        0.0008
     27 C         141.7759  140.6888  169.8760 C.3     1  UNL1        0.0695
     28 C         142.5007  139.6846  169.0295 C.2     1  UNL1        0.1739
     29 O         143.2083  138.5305  169.6755 O.2     1  UNL1       -0.2913
     30 H         140.3002  144.0325  160.6022 H       1  UNL1        0.1468
     31 C         139.1154  145.6094  162.5317 C.2     1  UNL1        0.2439
     32 N         139.9176  146.7702  162.0226 N.am    1  UNL1       -0.3253
     33 O         137.6308  145.5732  162.3198 O.2     1  UNL1       -0.2703
     34 H         140.8919  146.7939  162.1617 H       1  UNL1        0.1453
     35 H         139.4697  147.5082  161.5493 H       1  UNL1        0.1453
@<TRIPOS>BOND
     1     1     2    1
     2     2     3   ar
     3     3     4   ar
     4     4     5   ar
     5     5     6   ar
     6     6     7    1
     7     7     8    1
     8     8     9    1
     9     9    10    1
    10    10    11    1
    11    11    12    1
    12    13    12    1
    13    13    14    1
    14    14    15    1
    15    15    16    1
    16    16    17   ar
    17    17    18   ar
    18    18    19   ar
    19    19    20   ar
    20    20    21   ar
    21    21    31    1
    22    31    32   am
    23    31    33    2
    24    13    22    1
    25     4    23    1
    26    23    24    1
    27    24    25    1
    28    24    26    1
    29    24    27    1
    30    27    28    1
    31    28    29    2
    32     6     2   ar
    33    22    10    1
    34    28     3    1
    35    18     5    1
    36    21    16   ar
    37    15    30    1
    38    32    34    1
    39    32    35    1
@<TRIPOS>MOLECULE
*****
 35 39 0 0 0
SMALL
GASTEIGER

@<TRIPOS>ATOM
      1 C         137.5489  137.9957  166.8995 C.3     1  UNL1        0.0323
      2 C         138.5516  139.0905  166.6853 C.ar    1  UNL1       -0.0060
      3 C         139.0895  140.0121  167.7395 C.ar    1  UNL1        0.0438
      4 C         140.0628  140.9471  167.0852 C.ar    1  UNL1        0.0435
      5 N         140.1264  140.6035  165.6264 N.ar    1  UNL1       -0.3137
      6 C         139.1925  139.4561  165.3793 C.ar    1  UNL1        0.0372
      7 C         138.5376  138.4454  164.4850 C.3     1  UNL1        0.0452
      8 C         138.3119  137.8031  163.1485 C.3     1  UNL1        0.0235
      9 C         138.5670  137.6762  161.6757 C.3     1  UNL1        0.0725
     10 N         139.5681  138.4246  160.2564 N.3     1  UNL1       -0.2726
     11 C         139.7760  138.2428  158.7821 C.3     1  UNL1        0.0722
     12 C         140.7751  139.2641  158.3254 C.3     1  UNL1        0.0204
     13 C         141.1848  140.0772  159.5175 C.3     1  UNL1        0.0369
     14 C         142.0029  141.1885  160.1053 C.3     1  UNL1        0.0884
     15 N         142.4564  142.0398  161.2541 N.pl3   1  UNL1       -0.3325
     16 C         142.4413  142.4360  162.7008 C.ar    1  UNL1        0.0505
     17 C         141.9610  142.2862  164.1139 C.ar    1  UNL1        0.0319
     18 C         141.1256  141.6249  165.1697 C.ar    1  UNL1        0.0646
     19 C         142.0097  142.7813  165.6494 C.ar    1  UNL1        0.0177
     20 C         142.9674  143.6774  164.9215 C.ar    1  UNL1        0.0072
     21 C         143.1832  143.5048  163.4472 C.ar    1  UNL1        0.0663
     22 C         140.4388  139.5584  160.7110 C.3     1  UNL1        0.0738
     23 C         140.7654  141.9907  167.9021 C.3     1  UNL1        0.0446
     24 C         140.4947  142.0992  169.3734 C.3     1  UNL1        0.0128
     25 C         140.5711  142.5918  170.7882 C.3     1  UNL1        0.0008
     26 C         141.4945  143.2054  169.2104 C.3     1  UNL1        0.0008
     27 C         139.5213  141.1641  170.0279 C.3     1  UNL1        0.0695
     28 C         138.8187  140.1206  169.2109 C.2     1  UNL1        0.1739
     29 O         137.8454  139.1855  169.8654 O.2     1  UNL1       -0.2913
     30 H         143.0990  142.6639  160.8457 H       1  UNL1        0.1468
     31 C         144.1409  144.4008  162.7194 C.2     1  UNL1        0.2439
     32 N         144.2129  145.8590  163.0637 N.am    1  UNL1       -0.3253
     33 O         145.0266  143.8387  161.6472 O.2     1  UNL1       -0.2703
     34 H         143.6316  146.2279  163.7674 H       1  UNL1        0.1453
     35 H         144.8415  146.4471  162.5860 H       1  UNL1        0.1453
@<TRIPOS>BOND
     1     1     2    1
     2     2     3   ar
     3     3     4   ar
     4     4     5   ar
     5     5     6   ar
     6     6     7    1
     7     7     8    1
     8     8     9    1
     9     9    10    1
    10    10    11    1
    11    11    12    1
    12    13    12    1
    13    13    14    1
    14    14    15    1
    15    15    16    1
    16    16    17   ar
    17    17    18   ar
    18    18    19   ar
    19    19    20   ar
    20    20    21   ar
    21    21    31    1
    22    31    32   am
    23    31    33    2
    24    13    22    1
    25     4    23    1
    26    23    24    1
    27    24    25    1
    28    24    26    1
    29    24    27    1
    30    27    28    1
    31    28    29    2
    32     6     2   ar
    33    22    10    1
    34    28     3    1
    35    18     5    1
    36    21    16   ar
    37    15    30    1
    38    32    34    1
    39    32    35    1
@<TRIPOS>MOLECULE
*****
 35 39 0 0 0
SMALL
GASTEIGER

@<TRIPOS>ATOM
      1 C         144.8908  143.4373  166.1449 C.3     1  UNL1        0.0323
      2 C         143.6526  142.6462  165.8429 C.ar    1  UNL1       -0.0060
      3 C         142.6998  142.0798  166.8536 C.ar    1  UNL1        0.0438
      4 C         141.6083  141.3661  166.1126 C.ar    1  UNL1        0.0435
      5 N         141.8865  141.4913  164.6440 N.ar    1  UNL1       -0.3137
      6 C         143.1499  142.2824  164.4772 C.ar    1  UNL1        0.0372
      7 C         144.2139  142.9246  163.6372 C.3     1  UNL1        0.0452
      8 C         144.8344  143.2708  162.3162 C.3     1  UNL1        0.0235
      9 C         144.8696  143.2417  160.8169 C.3     1  UNL1        0.0725
     10 N         143.9311  142.5981  159.3063 N.3     1  UNL1       -0.2726
     11 C         144.0275  142.6077  157.8094 C.3     1  UNL1        0.0722
     12 C         142.8539  141.8489  157.2646 C.3     1  UNL1        0.0204
     13 C         142.0322  141.3704  158.4246 C.3     1  UNL1        0.0369
     14 C         140.8337  140.6323  158.9430 C.3     1  UNL1        0.0884
     15 N         139.9662  140.1232  160.0560 N.pl3   1  UNL1       -0.3325
     16 C         139.6285  139.9599  161.5083 C.ar    1  UNL1        0.0505
     17 C         139.8981  140.1799  162.9674 C.ar    1  UNL1        0.0319
     18 C         140.7129  140.7325  164.0990 C.ar    1  UNL1        0.0646
     19 C         139.4563  139.9538  164.5033 C.ar    1  UNL1        0.0177
     20 C         138.4029  139.2616  163.6900 C.ar    1  UNL1        0.0072
     21 C         138.4890  139.2647  162.1925 C.ar    1  UNL1        0.0663
     22 C         142.6979  141.8334  159.6865 C.3     1  UNL1        0.0738
     23 C         140.5021  140.6944  166.8710 C.3     1  UNL1        0.0446
     24 C         140.4874  140.7364  168.3702 C.3     1  UNL1        0.0128
     25 C         140.0397  140.5023  169.7826 C.3     1  UNL1        0.0008
     26 C         139.2404  139.9413  168.1198 C.3     1  UNL1        0.0008
     27 C         141.5789  141.4501  169.1113 C.3     1  UNL1        0.0695
     28 C         142.6852  142.1219  168.3529 C.2     1  UNL1        0.1739
     29 O         143.7767  142.8356  169.0939 O.2     1  UNL1       -0.2913
     30 H         139.2398  139.6491  159.5904 H       1  UNL1        0.1468
     31 C         137.4357  138.5726  161.3793 C.2     1  UNL1        0.2439
     32 N         137.0220  137.1725  161.7234 N.am    1  UNL1       -0.3253
     33 O         136.7962  139.2806  160.2218 O.2     1  UNL1       -0.2703
     34 H         137.4417  136.7078  162.4831 H       1  UNL1        0.1453
     35 H         136.3306  136.7182  161.1896 H       1  UNL1        0.1453
@<TRIPOS>BOND
     1     1     2    1
     2     2     3   ar
     3     3     4   ar
     4     4     5   ar
     5     5     6   ar
     6     6     7    1
     7     7     8    1
     8     8     9    1
     9     9    10    1
    10    10    11    1
    11    11    12    1
    12    13    12    1
    13    13    14    1
    14    14    15    1
    15    15    16    1
    16    16    17   ar
    17    17    18   ar
    18    18    19   ar
    19    19    20   ar
    20    20    21   ar
    21    21    31    1
    22    31    32   am
    23    31    33    2
    24    13    22    1
    25     4    23    1
    26    23    24    1
    27    24    25    1
    28    24    26    1
    29    24    27    1
    30    27    28    1
    31    28    29    2
    32     6     2   ar
    33    22    10    1
    34    28     3    1
    35    18     5    1
    36    21    16   ar
    37    15    30    1
    38    32    34    1
    39    32    35    1
@<TRIPOS>MOLECULE
*****
 35 39 0 0 0
SMALL
GASTEIGER

@<TRIPOS>ATOM
      1 C         144.4823  142.8910  161.2189 C.3     1  UNL1        0.0323
      2 C         143.3475  142.0114  161.6533 C.ar    1  UNL1       -0.0060
      3 C         142.4295  141.2451  160.7477 C.ar    1  UNL1        0.0438
      4 C         141.4461  140.5039  161.6041 C.ar    1  UNL1        0.0435
      5 N         141.7563  140.8121  163.0389 N.ar    1  UNL1       -0.3137
      6 C         142.9314  141.7438  163.0693 C.ar    1  UNL1        0.0372
      7 C         143.9461  142.5788  163.7927 C.3     1  UNL1        0.0452
      8 C         144.5678  143.1256  165.0435 C.3     1  UNL1        0.0235
      9 C         144.6542  143.2592  166.5351 C.3     1  UNL1        0.0725
     10 N         143.8401  142.6848  168.1426 N.3     1  UNL1       -0.2726
     11 C         143.9830  142.8627  169.6251 C.3     1  UNL1        0.0722
     12 C         142.9166  142.0476  170.2947 C.3     1  UNL1        0.0204
     13 C         142.1146  141.3659  169.2260 C.3     1  UNL1        0.0369
     14 C         140.9869  140.4562  168.8379 C.3     1  UNL1        0.0884
     15 N         140.1442  139.7446  167.8212 N.pl3   1  UNL1       -0.3325
     16 C         139.7795  139.3942  166.4090 C.ar    1  UNL1        0.0505
     17 C         139.9765  139.4854  164.9248 C.ar    1  UNL1        0.0319
     18 C         140.6898  139.9970  163.7086 C.ar    1  UNL1        0.0646
     19 C         139.5125  139.0532  163.4405 C.ar    1  UNL1        0.0177
     20 C         138.5670  138.3450  164.3649 C.ar    1  UNL1        0.0072
     21 C         138.7005  138.5155  165.8492 C.ar    1  UNL1        0.0663
     22 C         142.6853  141.7597  167.8959 C.3     1  UNL1        0.0738
     23 C         140.3952  139.6440  160.9667 C.3     1  UNL1        0.0446
     24 C         140.3276  139.5253  159.4730 C.3     1  UNL1        0.0128
     25 C         139.8626  139.0978  158.1125 C.3     1  UNL1        0.0008
     26 C         139.1827  138.6356  159.8569 C.3     1  UNL1        0.0008
     27 C         141.3111  140.2666  158.6166 C.3     1  UNL1        0.0695
     28 C         142.3620  141.1265  159.2539 C.2     1  UNL1        0.1739
     29 O         143.3455  141.8677  158.3975 O.2     1  UNL1       -0.2913
     30 H         139.4887  139.2493  168.3636 H       1  UNL1        0.1468
     31 C         137.7550  137.8073  166.7735 C.2     1  UNL1        0.2439
     32 N         137.3305  136.3993  166.4777 N.am    1  UNL1       -0.3253
     33 O         137.2341  138.5070  167.9938 O.2     1  UNL1       -0.2703
     34 H         137.6724  135.9401  165.6768 H       1  UNL1        0.1453
     35 H         136.7099  135.9345  167.0844 H       1  UNL1        0.1453
@<TRIPOS>BOND
     1     1     2    1
     2     2     3   ar
     3     3     4   ar
     4     4     5   ar
     5     5     6   ar
     6     6     7    1
     7     7     8    1
     8     8     9    1
     9     9    10    1
    10    10    11    1
    11    11    12    1
    12    13    12    1
    13    13    14    1
    14    14    15    1
    15    15    16    1
    16    16    17   ar
    17    17    18   ar
    18    18    19   ar
    19    19    20   ar
    20    20    21   ar
    21    21    31    1
    22    31    32   am
    23    31    33    2
    24    13    22    1
    25     4    23    1
    26    23    24    1
    27    24    25    1
    28    24    26    1
    29    24    27    1
    30    27    28    1
    31    28    29    2
    32     6     2   ar
    33    22    10    1
    34    28     3    1
    35    18     5    1
    36    21    16   ar
    37    15    30    1
    38    32    34    1
    39    32    35    1
@<TRIPOS>MOLECULE
*****
 35 39 0 0 0
SMALL
GASTEIGER

@<TRIPOS>ATOM
      1 C         143.7101  142.6567  168.8429 C.3     1  UNL1        0.0323
      2 C         142.5910  141.9654  168.1219 C.ar    1  UNL1       -0.0060
      3 C         141.3928  141.3268  168.7596 C.ar    1  UNL1        0.0438
      4 C         140.5349  140.7581  167.6686 C.ar    1  UNL1        0.0435
      5 N         141.2028  141.0453  166.3565 N.ar    1  UNL1       -0.3137
      6 C         142.4735  141.7914  166.6367 C.ar    1  UNL1        0.0372
      7 C         143.7332  142.4798  166.2014 C.3     1  UNL1        0.0452
      8 C         144.6931  142.9525  165.1503 C.3     1  UNL1        0.0235
      9 C         145.1337  143.1016  163.7242 C.3     1  UNL1        0.0725
     10 N         144.6328  142.6875  161.9481 N.3     1  UNL1       -0.2726
     11 C         145.1320  142.8718  160.5456 C.3     1  UNL1        0.0722
     12 C         144.1414  142.2387  159.6141 C.3     1  UNL1        0.0204
     13 C         143.0299  141.6632  160.4408 C.3     1  UNL1        0.0369
     14 C         141.7269  140.9245  160.5206 C.3     1  UNL1        0.0884
     15 N         140.5838  140.3265  161.2861 N.pl3   1  UNL1       -0.3325
     16 C         139.8626  140.0063  162.5618 C.ar    1  UNL1        0.0505
     17 C         139.7285  140.0373  164.0554 C.ar    1  UNL1        0.0319
     18 C         140.2121  140.4122  165.4249 C.ar    1  UNL1        0.0646
     19 C         138.8836  139.6496  165.3750 C.ar    1  UNL1        0.0177
     20 C         138.0824  139.1092  164.2278 C.ar    1  UNL1        0.0072
     21 C         138.5718  139.2875  162.8212 C.ar    1  UNL1        0.0663
     22 C         143.3336  141.9406  161.8833 C.3     1  UNL1        0.0738
     23 C         139.2563  140.0522  168.0107 C.3     1  UNL1        0.0446
     24 C         138.8357  139.9151  169.4439 C.3     1  UNL1        0.0128
     25 C         138.0186  139.5346  170.6429 C.3     1  UNL1        0.0008
     26 C         137.6940  139.2142  168.7692 C.3     1  UNL1        0.0008
     27 C         139.6936  140.4838  170.5350 C.3     1  UNL1        0.0695
     28 C         140.9722  141.1897  170.1929 C.2     1  UNL1        0.1739
     29 O         141.8301  141.7584  171.2840 O.2     1  UNL1       -0.2913
     30 H         140.0053  139.9457  160.5864 H       1  UNL1        0.1468
     31 C         137.7706  138.7472  161.6741 C.2     1  UNL1        0.2439
     32 N         137.3389  137.3106  161.6716 N.am    1  UNL1       -0.3253
     33 O         137.4009  139.6434  160.5294 O.2     1  UNL1       -0.2703
     34 H         137.5815  136.7224  162.4228 H       1  UNL1        0.1453
     35 H         136.8130  136.9560  160.9186 H       1  UNL1        0.1453
@<TRIPOS>BOND
     1     1     2    1
     2     2     3   ar
     3     3     4   ar
     4     4     5   ar
     5     5     6   ar
     6     6     7    1
     7     7     8    1
     8     8     9    1
     9     9    10    1
    10    10    11    1
    11    11    12    1
    12    13    12    1
    13    13    14    1
    14    14    15    1
    15    15    16    1
    16    16    17   ar
    17    17    18   ar
    18    18    19   ar
    19    19    20   ar
    20    20    21   ar
    21    21    31    1
    22    31    32   am
    23    31    33    2
    24    13    22    1
    25     4    23    1
    26    23    24    1
    27    24    25    1
    28    24    26    1
    29    24    27    1
    30    27    28    1
    31    28    29    2
    32     6     2   ar
    33    22    10    1
    34    28     3    1
    35    18     5    1
    36    21    16   ar
    37    15    30    1
    38    32    34    1
    39    32    35    1
@<TRIPOS>MOLECULE
*****
 35 39 0 0 0
SMALL
GASTEIGER

@<TRIPOS>ATOM
      1 C         141.2564  138.5500  163.8346 C.3     1  UNL1        0.0323
      2 C         141.0339  139.8499  163.1201 C.ar    1  UNL1       -0.0060
      3 C         140.4686  141.1018  163.7228 C.ar    1  UNL1        0.0438
      4 C         140.4229  142.1519  162.6527 C.ar    1  UNL1        0.0435
      5 N         140.9599  141.5489  161.3885 N.ar    1  UNL1       -0.3137
      6 C         141.3375  140.1263  161.6773 C.ar    1  UNL1        0.0372
      7 C         141.8773  138.7868  161.2718 C.3     1  UNL1        0.0452
      8 C         142.4555  137.8374  160.2647 C.3     1  UNL1        0.0235
      9 C         142.9398  137.4954  158.8868 C.3     1  UNL1        0.0725
     10 N         143.1773  138.2215  157.1568 N.3     1  UNL1       -0.2726
     11 C         143.6766  137.8127  155.8026 C.3     1  UNL1        0.0722
     12 C         143.5476  138.9926  154.8855 C.3     1  UNL1        0.0204
     13 C         142.9687  140.1306  155.6728 C.3     1  UNL1        0.0369
     14 C         142.4963  141.5530  155.7328 C.3     1  UNL1        0.0884
     15 N         141.9205  142.7318  156.4603 N.pl3   1  UNL1       -0.3325
     16 C         141.3734  143.3968  157.6884 C.ar    1  UNL1        0.0505
     17 C         140.9802  143.3957  159.1360 C.ar    1  UNL1        0.0319
     18 C         140.8310  142.7289  160.4713 C.ar    1  UNL1        0.0646
     19 C         140.3798  144.1921  160.4051 C.ar    1  UNL1        0.0177
     20 C         140.3668  145.1855  159.2812 C.ar    1  UNL1        0.0072
     21 C         140.8636  144.7879  157.9229 C.ar    1  UNL1        0.0663
     22 C         142.7398  139.6540  157.0765 C.3     1  UNL1        0.0738
     23 C         139.8982  143.5214  162.9675 C.3     1  UNL1        0.0446
     24 C         139.4192  143.8409  164.3526 C.3     1  UNL1        0.0128
     25 C         138.8564  144.6187  165.5050 C.3     1  UNL1        0.0008
     26 C         139.1780  145.1610  163.6827 C.3     1  UNL1        0.0008
     27 C         139.4649  142.7908  165.4228 C.3     1  UNL1        0.0695
     28 C         139.9896  141.4213  165.1079 C.2     1  UNL1        0.1739
     29 O         140.0353  140.3712  166.1781 O.2     1  UNL1       -0.2913
     30 H         141.8814  143.4362  155.7737 H       1  UNL1        0.1468
     31 C         140.8507  145.7813  156.7992 C.2     1  UNL1        0.2439
     32 N         139.9312  146.9651  156.8552 N.am    1  UNL1       -0.3253
     33 O         141.7571  145.5908  155.6193 O.2     1  UNL1       -0.2703
     34 H         139.3363  147.0901  157.6295 H       1  UNL1        0.1453
     35 H         139.9227  147.6171  156.1176 H       1  UNL1        0.1453
@<TRIPOS>BOND
     1     1     2    1
     2     2     3   ar
     3     3     4   ar
     4     4     5   ar
     5     5     6   ar
     6     6     7    1
     7     7     8    1
     8     8     9    1
     9     9    10    1
    10    10    11    1
    11    11    12    1
    12    13    12    1
    13    13    14    1
    14    14    15    1
    15    15    16    1
    16    16    17   ar
    17    17    18   ar
    18    18    19   ar
    19    19    20   ar
    20    20    21   ar
    21    21    31    1
    22    31    32   am
    23    31    33    2
    24    13    22    1
    25     4    23    1
    26    23    24    1
    27    24    25    1
    28    24    26    1
    29    24    27    1
    30    27    28    1
    31    28    29    2
    32     6     2   ar
    33    22    10    1
    34    28     3    1
    35    18     5    1
    36    21    16   ar
    37    15    30    1
    38    32    34    1
    39    32    35    1
@<TRIPOS>MOLECULE
*****
 35 39 0 0 0
SMALL
GASTEIGER

@<TRIPOS>ATOM
      1 C         140.1637  145.8698  162.1850 C.3     1  UNL1        0.0323
      2 C         140.0199  144.4381  161.7613 C.ar    1  UNL1       -0.0060
      3 C         139.5225  143.3110  162.6171 C.ar    1  UNL1        0.0438
      4 C         139.5435  142.0584  161.7923 C.ar    1  UNL1        0.0435
      5 N         140.0538  142.4113  160.4266 N.ar    1  UNL1       -0.3137
      6 C         140.3483  143.8819  160.4074 C.ar    1  UNL1        0.0372
      7 C         140.8139  145.1345  159.7261 C.3     1  UNL1        0.0452
      8 C         141.3441  145.8820  158.5386 C.3     1  UNL1        0.0235
      9 C         141.8173  145.9532  157.1169 C.3     1  UNL1        0.0725
     10 N         142.1071  144.8939  155.5772 N.3     1  UNL1       -0.2726
     11 C         142.5913  145.0362  154.1647 C.3     1  UNL1        0.0722
     12 C         142.5355  143.6843  153.5172 C.3     1  UNL1        0.0204
     13 C         142.0168  142.7065  154.5296 C.3     1  UNL1        0.0369
     14 C         141.6254  141.3042  154.8902 C.3     1  UNL1        0.0884
     15 N         141.1125  140.2741  155.8527 N.pl3   1  UNL1       -0.3325
     16 C         140.5958  139.8526  157.1963 C.ar    1  UNL1        0.0505
     17 C         140.1936  140.1360  158.6133 C.ar    1  UNL1        0.0319
     18 C         139.9980  141.0593  159.7791 C.ar    1  UNL1        0.0646
     19 C         139.6309  139.5918  160.0249 C.ar    1  UNL1        0.0177
     20 C         139.6817  138.3850  159.1354 C.ar    1  UNL1        0.0072
     21 C         140.1642  138.5153  157.7212 C.ar    1  UNL1        0.0663
     22 C         141.7520  143.4541  155.8027 C.3     1  UNL1        0.0738
     23 C         139.0951  140.7584  162.3913 C.3     1  UNL1        0.0446
     24 C         138.6258  140.7109  163.8152 C.3     1  UNL1        0.0128
     25 C         138.1004  140.1623  165.1086 C.3     1  UNL1        0.0008
     26 C         138.4643  139.2677  163.4395 C.3     1  UNL1        0.0008
     27 C         138.6049  141.9635  164.6401 C.3     1  UNL1        0.0695
     28 C         139.0532  143.2636  164.0411 C.2     1  UNL1        0.1739
     29 O         139.0323  144.5163  164.8660 O.2     1  UNL1       -0.2913
     30 H         141.1179  139.4399  155.3300 H       1  UNL1        0.1468
     31 C         140.2149  137.3086  156.8318 C.2     1  UNL1        0.2439
     32 N         138.9862  136.8703  156.0914 N.am    1  UNL1       -0.3253
     33 O         141.4945  136.5401  156.6827 O.2     1  UNL1       -0.2703
     34 H         138.1464  137.3746  156.1893 H       1  UNL1        0.1453
     35 H         139.0195  136.0782  155.5077 H       1  UNL1        0.1453
@<TRIPOS>BOND
     1     1     2    1
     2     2     3   ar
     3     3     4   ar
     4     4     5   ar
     5     5     6   ar
     6     6     7    1
     7     7     8    1
     8     8     9    1
     9     9    10    1
    10    10    11    1
    11    11    12    1
    12    13    12    1
    13    13    14    1
    14    14    15    1
    15    15    16    1
    16    16    17   ar
    17    17    18   ar
    18    18    19   ar
    19    19    20   ar
    20    20    21   ar
    21    21    31    1
    22    31    32   am
    23    31    33    2
    24    13    22    1
    25     4    23    1
    26    23    24    1
    27    24    25    1
    28    24    26    1
    29    24    27    1
    30    27    28    1
    31    28    29    2
    32     6     2   ar
    33    22    10    1
    34    28     3    1
    35    18     5    1
    36    21    16   ar
    37    15    30    1
    38    32    34    1
    39    32    35    1
@<TRIPOS>MOLECULE
*****
 35 39 0 0 0
SMALL
GASTEIGER

@<TRIPOS>ATOM
      1 C         143.2412  139.9778  164.6507 C.3     1  UNL1        0.0323
      2 C         142.1662  140.5310  163.7628 C.ar    1  UNL1       -0.0060
      3 C         141.2260  141.6477  164.1074 C.ar    1  UNL1        0.0438
      4 C         140.3214  141.8715  162.9321 C.ar    1  UNL1        0.0435
      5 N         140.7027  140.8931  161.8609 N.ar    1  UNL1       -0.3137
      6 C         141.8428  140.0646  162.3743 C.ar    1  UNL1        0.0372
      7 C         142.8665  138.9780  162.2280 C.3     1  UNL1        0.0452
      8 C         143.5391  137.8823  161.4555 C.3     1  UNL1        0.0235
      9 C         143.7068  137.0283  160.2337 C.3     1  UNL1        0.0725
     10 N         143.0085  136.7352  158.5007 N.3     1  UNL1       -0.2726
     11 C         143.2304  135.8470  157.3125 C.3     1  UNL1        0.0722
     12 C         142.2350  136.2276  156.2570 C.3     1  UNL1        0.0204
     13 C         141.3978  137.3510  156.7928 C.3     1  UNL1        0.0369
     14 C         140.2836  138.3372  156.6037 C.3     1  UNL1        0.0884
     15 N         139.4100  139.4611  157.0769 N.pl3   1  UNL1       -0.3325
     16 C         138.9772  140.4651  158.1039 C.ar    1  UNL1        0.0505
     17 C         139.0846  141.1192  159.4494 C.ar    1  UNL1        0.0319
     18 C         139.7072  141.2737  160.8053 C.ar    1  UNL1        0.0646
     19 C         138.5515  142.2303  160.4919 C.ar    1  UNL1        0.0177
     20 C         137.6876  142.3917  159.2763 C.ar    1  UNL1        0.0072
     21 C         137.9004  141.5091  158.0823 C.ar    1  UNL1        0.0663
     22 C         141.8759  137.6648  158.1795 C.3     1  UNL1        0.0738
     23 C         139.2675  142.9374  162.9890 C.3     1  UNL1        0.0446
     24 C         139.1181  143.7794  164.2212 C.3     1  UNL1        0.0128
     25 C         138.5910  144.8252  165.1584 C.3     1  UNL1        0.0008
     26 C         138.0305  144.3664  163.3713 C.3     1  UNL1        0.0008
     27 C         140.0226  143.5556  165.3967 C.3     1  UNL1        0.0695
     28 C         141.0766  142.4897  165.3398 C.2     1  UNL1        0.1739
     29 O         141.9811  142.2659  166.5153 O.2     1  UNL1       -0.2913
     30 H         138.8054  139.6254  156.3174 H       1  UNL1        0.1468
     31 C         137.0365  141.6705  156.8668 C.2     1  UNL1        0.2439
     32 N         136.6710  143.0425  156.3831 N.am    1  UNL1       -0.3253
     33 O         136.5379  140.4597  156.1349 O.2     1  UNL1       -0.2703
     34 H         136.9983  143.8371  156.8635 H       1  UNL1        0.1453
     35 H         136.1040  143.1484  155.5853 H       1  UNL1        0.1453
@<TRIPOS>BOND
     1     1     2    1
     2     2     3   ar
     3     3     4   ar
     4     4     5   ar
     5     5     6   ar
     6     6     7    1
     7     7     8    1
     8     8     9    1
     9     9    10    1
    10    10    11    1
    11    11    12    1
    12    13    12    1
    13    13    14    1
    14    14    15    1
    15    15    16    1
    16    16    17   ar
    17    17    18   ar
    18    18    19   ar
    19    19    20   ar
    20    20    21   ar
    21    21    31    1
    22    31    32   am
    23    31    33    2
    24    13    22    1
    25     4    23    1
    26    23    24    1
    27    24    25    1
    28    24    26    1
    29    24    27    1
    30    27    28    1
    31    28    29    2
    32     6     2   ar
    33    22    10    1
    34    28     3    1
    35    18     5    1
    36    21    16   ar
    37    15    30    1
    38    32    34    1
    39    32    35    1
@<TRIPOS>MOLECULE
*****
 35 39 0 0 0
SMALL
GASTEIGER

@<TRIPOS>ATOM
      1 C         139.9220  144.2050  164.2909 C.3     1  UNL1        0.0323
      2 C         139.8417  142.9859  163.4206 C.ar    1  UNL1       -0.0060
      3 C         139.6964  141.5708  163.8965 C.ar    1  UNL1        0.0438
      4 C         139.6574  140.6782  162.6917 C.ar    1  UNL1        0.0435
      5 N         139.7785  141.5417  161.4711 N.ar    1  UNL1       -0.3137
      6 C         139.8924  142.9678  161.9215 C.ar    1  UNL1        0.0372
      7 C         140.0352  144.4373  161.6560 C.3     1  UNL1        0.0452
      8 C         140.1742  145.6132  160.7353 C.3     1  UNL1        0.0235
      9 C         140.2776  146.2264  159.3702 C.3     1  UNL1        0.0725
     10 N         140.3027  145.7941  157.5292 N.3     1  UNL1       -0.2726
     11 C         140.4109  146.4723  156.1957 C.3     1  UNL1        0.0722
     12 C         140.3521  145.4160  155.1323 C.3     1  UNL1        0.0204
     13 C         140.2075  144.0849  155.8086 C.3     1  UNL1        0.0369
     14 C         140.0753  142.5939  155.7133 C.3     1  UNL1        0.0884
     15 N         139.9302  141.2315  156.3243 N.pl3   1  UNL1       -0.3325
     16 C         139.8053  140.3102  157.5014 C.ar    1  UNL1        0.0505
     17 C         139.7294  140.0410  158.9751 C.ar    1  UNL1        0.0319
     18 C         139.7197  140.4854  160.4076 C.ar    1  UNL1        0.0646
     19 C         139.5905  138.9753  160.1794 C.ar    1  UNL1        0.0177
     20 C         139.5594  138.1517  158.9261 C.ar    1  UNL1        0.0072
     21 C         139.6668  138.8191  157.5871 C.ar    1  UNL1        0.0663
     22 C         140.1769  144.3186  157.2900 C.3     1  UNL1        0.0738
     23 C         139.5167  139.1945  162.8617 C.3     1  UNL1        0.0446
     24 C         139.4149  138.6034  164.2364 C.3     1  UNL1        0.0128
     25 C         139.2838  137.5788  165.3241 C.3     1  UNL1        0.0008
     26 C         139.3304  137.3550  163.4093 C.3     1  UNL1        0.0008
     27 C         139.4539  139.4960  165.4413 C.3     1  UNL1        0.0695
     28 C         139.5947  140.9797  165.2714 C.2     1  UNL1        0.1739
     29 O         139.6337  141.8723  166.4763 O.2     1  UNL1       -0.2913
     30 H         139.9024  140.6269  155.5478 H       1  UNL1        0.1468
     31 C         139.6358  137.9955  156.3339 C.2     1  UNL1        0.2439
     32 N         140.2366  136.6211  156.3246 N.am    1  UNL1       -0.3253
     33 O         139.0039  138.5462  155.0899 O.2     1  UNL1       -0.2703
     34 H         140.6514  136.2596  157.1410 H       1  UNL1        0.1453
     35 H         140.2163  136.0805  155.5020 H       1  UNL1        0.1453
@<TRIPOS>BOND
     1     1     2    1
     2     2     3   ar
     3     3     4   ar
     4     4     5   ar
     5     5     6   ar
     6     6     7    1
     7     7     8    1
     8     8     9    1
     9     9    10    1
    10    10    11    1
    11    11    12    1
    12    13    12    1
    13    13    14    1
    14    14    15    1
    15    15    16    1
    16    16    17   ar
    17    17    18   ar
    18    18    19   ar
    19    19    20   ar
    20    20    21   ar
    21    21    31    1
    22    31    32   am
    23    31    33    2
    24    13    22    1
    25     4    23    1
    26    23    24    1
    27    24    25    1
    28    24    26    1
    29    24    27    1
    30    27    28    1
    31    28    29    2
    32     6     2   ar
    33    22    10    1
    34    28     3    1
    35    18     5    1
    36    21    16   ar
    37    15    30    1
    38    32    34    1
    39    32    35    1
