@<TRIPOS>MOLECULE
*****
 45 48 0 0 0
SMALL
GASTEIGER

@<TRIPOS>ATOM
      1 C         141.4285  140.8856  162.2332 C.3     1  UNL1        0.0808
      2 C         141.4850  140.6348  163.7110 C.ar    1  UNL1        0.0375
      3 C         141.1171  141.7265  164.6716 C.ar    1  UNL1        0.0023
      4 C         141.1736  141.4758  166.1494 C.ar    1  UNL1        0.0181
      5 C         140.8057  142.5676  167.1099 C.ar    1  UNL1        0.0082
      6 C         140.8622  142.3168  168.5878 C.ar    1  UNL1        0.0347
      7 BR        140.4944  143.4086  169.5484 Br      1  UNL1       -0.0490
      8 C         141.2866  140.9743  169.1050 C.ar    1  UNL1        0.0082
      9 C         141.6545  139.8825  168.1444 C.ar    1  UNL1        0.0197
     10 C         141.5980  140.1333  166.6667 C.ar    1  UNL1        0.0844
     11 N         141.9658  139.0415  165.7061 N.ar    1  UNL1       -0.2119
     12 C         141.9093  139.2923  164.2282 C.ar    1  UNL1        0.2211
     13 O         142.2772  138.2005  163.2677 O.3     1  UNL1       -0.4563
     14 C         141.1248  137.2403  163.2721 C.3     1  UNL1        0.2542
     15 C         140.2883  140.3430  161.4234 C.ar    1  UNL1        0.0245
     16 C         138.8744  140.5926  161.8577 C.ar    1  UNL1        0.0200
     17 C         137.7343  140.0501  161.0480 C.ar    1  UNL1        0.1019
     18 N         138.0081  139.2579  159.8039 N.ar    1  UNL1       -0.2076
     19 C         139.4220  139.0084  159.3696 C.ar    1  UNL1        0.2598
     20 C         140.5621  139.5510  160.1794 C.ar    1  UNL1        0.1879
     21 O         139.6957  138.2163  158.1256 O.3     1  UNL1       -0.4541
     22 C         139.6283  138.8816  156.7829 C.3     1  UNL1        0.2543
     23 O         141.9760  139.3014  159.7451 O.3     1  UNL1       -0.4670
     24 C         142.5526  137.9190  159.8263 C.3     1  UNL1        0.2527
     25 C         142.5122  141.6789  161.5651 C.3     1  UNL1        0.1162
     26 O         143.4901  140.5756  161.8413 O.3     1  UNL1       -0.3820
     27 H         144.3616  140.8214  161.4936 H       1  UNL1        0.2107
     28 C         140.2236  144.2561  159.5978 C.ar    1  UNL1        0.2271
     29 C         141.2015  143.1528  159.8740 C.ar    1  UNL1        0.0559
     30 C         141.5342  142.7822  161.2889 C.ar    1  UNL1        0.0117
     31 C         140.8889  143.5149  162.4276 C.ar    1  UNL1        0.0559
     32 C         139.9109  144.6182  162.1514 C.ar    1  UNL1        0.2270
     33 N         139.5783  144.9888  160.7365 N.ar    1  UNL1       -0.1767
     34 O         139.8909  144.6266  158.1828 O.3     1  UNL1       -0.4602
     35 C         142.0407  145.9641  157.6003 C.3     1  UNL1        0.0512
     36 C         140.5495  145.8132  157.5437 C.3     1  UNL1        0.2072
     37 O         139.2656  145.3510  163.2901 O.3     1  UNL1       -0.4640
     38 C         138.5262  144.5887  164.3495 C.3     1  UNL1        0.1678
     39 C         137.7647  143.3482  163.9874 C.3     1  UNL1        0.0473
     40 C         138.5483  145.0670  165.7711 C.3     1  UNL1        0.0473
     41 C         143.5958  142.4722  160.8971 C.3     1  UNL1        0.0491
     42 C         144.8331  142.8426  161.6600 C.3     1  UNL1        0.0750
     43 N         144.8189  142.8381  163.1599 N.3     1  UNL1       -0.2702
     44 C         145.5579  141.7725  163.9138 C.3     1  UNL1        0.0897
     45 C         144.0655  143.8992  163.9060 C.3     1  UNL1        0.0897
@<TRIPOS>BOND
     1    35    36    1
     2    36    34    1
     3    34    28    1
     4    28    29   ar
     5    29    30   ar
     6    30    25    1
     7    25    26    1
     8    25    41    1
     9    41    42    1
    10    42    43    1
    11    43    44    1
    12    43    45    1
    13    25     1    1
    14     1     2    1
    15     2     3   ar
    16     3     4   ar
    17     4     5   ar
    18     5     6   ar
    19     6     7    1
    20     6     8   ar
    21     8     9   ar
    22     9    10   ar
    23    10    11   ar
    24    11    12   ar
    25    12    13    1
    26    13    14    1
    27     1    15    1
    28    15    16   ar
    29    16    17   ar
    30    17    18   ar
    31    18    19   ar
    32    19    21    1
    33    21    22    1
    34    19    20   ar
    35    20    23    1
    36    23    24    1
    37    30    31   ar
    38    31    32   ar
    39    32    37    1
    40    37    38    1
    41    38    39    1
    42    38    40    1
    43    32    33   ar
    44    33    28   ar
    45    12     2   ar
    46    20    15   ar
    47    10     4   ar
    48    26    27    1
@<TRIPOS>MOLECULE
*****
 45 48 0 0 0
SMALL
GASTEIGER

@<TRIPOS>ATOM
      1 C         141.6509  141.8196  162.4711 C.3     1  UNL1        0.0808
      2 C         142.0470  141.9178  163.9146 C.ar    1  UNL1        0.0375
      3 C         141.0746  141.5259  164.9874 C.ar    1  UNL1        0.0023
      4 C         141.4706  141.6241  166.4309 C.ar    1  UNL1        0.0181
      5 C         140.4982  141.2321  167.5037 C.ar    1  UNL1        0.0082
      6 C         140.8942  141.3304  168.9472 C.ar    1  UNL1        0.0347
      7 BR        139.9219  140.9384  170.0200 Br      1  UNL1       -0.0490
      8 C         142.2626  141.8206  169.3178 C.ar    1  UNL1        0.0082
      9 C         143.2349  142.2125  168.2450 C.ar    1  UNL1        0.0197
     10 C         142.8389  142.1143  166.8016 C.ar    1  UNL1        0.0844
     11 N         143.8113  142.5063  165.7287 N.ar    1  UNL1       -0.2119
     12 C         143.4153  142.4080  164.2853 C.ar    1  UNL1        0.2211
     13 O         144.3876  142.8000  163.2124 O.3     1  UNL1       -0.4563
     14 C         145.5454  141.8547  163.3385 C.3     1  UNL1        0.2542
     15 C         142.5144  141.0623  161.5064 C.ar    1  UNL1        0.0245
     16 C         142.8121  139.6117  161.7454 C.ar    1  UNL1        0.0200
     17 C         143.6756  138.8544  160.7806 C.ar    1  UNL1        0.1019
     18 N         144.2415  139.5477  159.5768 N.ar    1  UNL1       -0.2076
     19 C         143.9439  140.9983  159.3378 C.ar    1  UNL1        0.2598
     20 C         143.0804  141.7556  160.3027 C.ar    1  UNL1        0.1879
     21 O         144.5098  141.6917  158.1341 O.3     1  UNL1       -0.4541
     22 C         145.0942  140.8873  157.0110 C.3     1  UNL1        0.2543
     23 O         142.7827  143.2062  160.0637 O.3     1  UNL1       -0.4670
     24 C         141.8957  143.6121  158.9241 C.3     1  UNL1        0.2527
     25 C         140.3914  142.4787  161.9925 C.3     1  UNL1        0.1162
     26 O         140.9416  143.8170  162.3875 O.3     1  UNL1       -0.3820
     27 H         140.2922  144.5074  162.1809 H       1  UNL1        0.2107
     28 C         139.1083  139.4645  159.7523 C.ar    1  UNL1        0.2271
     29 C         139.6585  140.8028  160.1474 C.ar    1  UNL1        0.0559
     30 C         139.8412  141.1403  161.5974 C.ar    1  UNL1        0.0117
     31 C         139.4736  140.1394  162.6524 C.ar    1  UNL1        0.0559
     32 C         138.9234  138.8010  162.2574 C.ar    1  UNL1        0.2270
     33 N         138.7408  138.4636  160.8073 N.ar    1  UNL1       -0.1767
     34 O         138.9257  139.1270  158.3022 O.3     1  UNL1       -0.4602
     35 C         141.3151  138.1922  157.8936 C.3     1  UNL1        0.0512
     36 C         139.8374  138.1354  157.6423 C.3     1  UNL1        0.2072
     37 O         138.5559  137.8001  163.3125 O.3     1  UNL1       -0.4640
     38 C         139.2152  137.8532  164.6588 C.3     1  UNL1        0.1678
     39 C         138.4279  138.2766  165.8633 C.3     1  UNL1        0.0473
     40 C         140.6619  137.4829  164.8006 C.3     1  UNL1        0.0473
     41 C         139.1318  143.1377  161.5138 C.3     1  UNL1        0.0491
     42 C         138.4078  144.1059  162.4019 C.3     1  UNL1        0.0750
     43 N         138.3044  143.8399  163.8745 N.3     1  UNL1       -0.2702
     44 C         137.5715  142.6279  164.3681 C.3     1  UNL1        0.0897
     45 C         138.9341  144.7861  164.8535 C.3     1  UNL1        0.0897
@<TRIPOS>BOND
     1    35    36    1
     2    36    34    1
     3    34    28    1
     4    28    29   ar
     5    29    30   ar
     6    30    25    1
     7    25    26    1
     8    25    41    1
     9    41    42    1
    10    42    43    1
    11    43    44    1
    12    43    45    1
    13    25     1    1
    14     1     2    1
    15     2     3   ar
    16     3     4   ar
    17     4     5   ar
    18     5     6   ar
    19     6     7    1
    20     6     8   ar
    21     8     9   ar
    22     9    10   ar
    23    10    11   ar
    24    11    12   ar
    25    12    13    1
    26    13    14    1
    27     1    15    1
    28    15    16   ar
    29    16    17   ar
    30    17    18   ar
    31    18    19   ar
    32    19    21    1
    33    21    22    1
    34    19    20   ar
    35    20    23    1
    36    23    24    1
    37    30    31   ar
    38    31    32   ar
    39    32    37    1
    40    37    38    1
    41    38    39    1
    42    38    40    1
    43    32    33   ar
    44    33    28   ar
    45    12     2   ar
    46    20    15   ar
    47    10     4   ar
    48    26    27    1
@<TRIPOS>MOLECULE
*****
 45 48 0 0 0
SMALL
GASTEIGER

@<TRIPOS>ATOM
      1 C         140.6706  140.6743  163.1167 C.3     1  UNL1        0.0808
      2 C         140.3655  140.5750  164.5820 C.ar    1  UNL1        0.0375
      3 C         140.6168  141.7488  165.4816 C.ar    1  UNL1        0.0023
      4 C         140.3116  141.6496  166.9469 C.ar    1  UNL1        0.0181
      5 C         140.5629  142.8233  167.8464 C.ar    1  UNL1        0.0082
      6 C         140.2577  142.7241  169.3117 C.ar    1  UNL1        0.0347
      7 BR        140.5090  143.8978  170.2113 Br      1  UNL1       -0.0490
      8 C         139.7013  141.4512  169.8774 C.ar    1  UNL1        0.0082
      9 C         139.4500  140.2774  168.9779 C.ar    1  UNL1        0.0197
     10 C         139.7552  140.3766  167.5126 C.ar    1  UNL1        0.0844
     11 N         139.5039  139.2029  166.6131 N.ar    1  UNL1       -0.2119
     12 C         139.8091  139.3021  165.1477 C.ar    1  UNL1        0.2211
     13 O         139.5578  138.1284  164.2482 O.3     1  UNL1       -0.4563
     14 C         140.6573  137.1481  164.5308 C.3     1  UNL1        0.2542
     15 C         141.7979  139.8777  162.5298 C.ar    1  UNL1        0.0245
     16 C         143.1262  139.8326  163.2252 C.ar    1  UNL1        0.0200
     17 C         144.2535  139.0360  162.6383 C.ar    1  UNL1        0.1019
     18 N         144.0525  138.2843  161.3558 N.ar    1  UNL1       -0.2076
     19 C         142.7243  138.3294  160.6603 C.ar    1  UNL1        0.2598
     20 C         141.5969  139.1261  161.2473 C.ar    1  UNL1        0.1879
     21 O         142.5233  137.5778  159.3779 O.3     1  UNL1       -0.4541
     22 C         142.6829  138.2818  158.0631 C.3     1  UNL1        0.2543
     23 O         140.2687  139.1711  160.5519 O.3     1  UNL1       -0.4670
     24 C         139.3046  138.0317  160.7018 C.3     1  UNL1        0.2527
     25 C         139.8485  141.5702  162.2384 C.3     1  UNL1        0.1162
     26 O         138.6465  140.7068  162.4829 O.3     1  UNL1       -0.3820
     27 H         137.8861  141.0669  162.0002 H       1  UNL1        0.2107
     28 C         142.9385  143.9708  162.9005 C.ar    1  UNL1        0.2271
     29 C         141.7365  143.1074  163.1450 C.ar    1  UNL1        0.0559
     30 C         141.0505  142.4335  161.9939 C.ar    1  UNL1        0.0117
     31 C         141.5664  142.6230  160.5982 C.ar    1  UNL1        0.0559
     32 C         142.7684  143.4864  160.3537 C.ar    1  UNL1        0.2270
     33 N         143.4544  144.1603  161.5048 N.ar    1  UNL1       -0.1767
     34 O         143.6246  144.6447  164.0517 O.3     1  UNL1       -0.4602
     35 C         145.0191  142.5331  164.6400 C.3     1  UNL1        0.0512
     36 C         144.3850  143.8279  165.0539 C.3     1  UNL1        0.2072
     37 O         143.2843  143.6758  158.9580 O.3     1  UNL1       -0.4640
     38 C         142.3641  144.1622  157.8778 C.3     1  UNL1        0.1678
     39 C         141.9844  145.6119  157.8126 C.3     1  UNL1        0.0473
     40 C         141.8237  143.1989  156.8629 C.3     1  UNL1        0.0473
     41 C         139.0263  142.4661  161.3601 C.3     1  UNL1        0.0491
     42 C         138.0271  143.4035  161.9708 C.3     1  UNL1        0.0750
     43 N         138.4853  144.4815  162.9078 N.3     1  UNL1       -0.2702
     44 C         138.2236  144.3572  164.3795 C.3     1  UNL1        0.0897
     45 C         139.2053  145.6839  162.3730 C.3     1  UNL1        0.0897
@<TRIPOS>BOND
     1    35    36    1
     2    36    34    1
     3    34    28    1
     4    28    29   ar
     5    29    30   ar
     6    30    25    1
     7    25    26    1
     8    25    41    1
     9    41    42    1
    10    42    43    1
    11    43    44    1
    12    43    45    1
    13    25     1    1
    14     1     2    1
    15     2     3   ar
    16     3     4   ar
    17     4     5   ar
    18     5     6   ar
    19     6     7    1
    20     6     8   ar
    21     8     9   ar
    22     9    10   ar
    23    10    11   ar
    24    11    12   ar
    25    12    13    1
    26    13    14    1
    27     1    15    1
    28    15    16   ar
    29    16    17   ar
    30    17    18   ar
    31    18    19   ar
    32    19    21    1
    33    21    22    1
    34    19    20   ar
    35    20    23    1
    36    23    24    1
    37    30    31   ar
    38    31    32   ar
    39    32    37    1
    40    37    38    1
    41    38    39    1
    42    38    40    1
    43    32    33   ar
    44    33    28   ar
    45    12     2   ar
    46    20    15   ar
    47    10     4   ar
    48    26    27    1
@<TRIPOS>MOLECULE
*****
 45 48 0 0 0
SMALL
GASTEIGER

@<TRIPOS>ATOM
      1 C         141.3248  140.8796  162.4197 C.3     1  UNL1        0.0808
      2 C         141.3728  140.6268  163.8975 C.ar    1  UNL1        0.0375
      3 C         141.0186  141.7232  164.8579 C.ar    1  UNL1        0.0023
      4 C         141.0665  141.4704  166.3356 C.ar    1  UNL1        0.0181
      5 C         140.7123  142.5669  167.2960 C.ar    1  UNL1        0.0082
      6 C         140.7603  142.3140  168.7738 C.ar    1  UNL1        0.0347
      7 BR        140.4061  143.4105  169.7342 Br      1  UNL1       -0.0490
      8 C         141.1625  140.9648  169.2912 C.ar    1  UNL1        0.0082
      9 C         141.5167  139.8683  168.3308 C.ar    1  UNL1        0.0197
     10 C         141.4687  140.1211  166.8531 C.ar    1  UNL1        0.0844
     11 N         141.8229  139.0246  165.8927 N.ar    1  UNL1       -0.2119
     12 C         141.7750  139.2775  164.4149 C.ar    1  UNL1        0.2211
     13 O         142.1292  138.1810  163.4545 O.3     1  UNL1       -0.4563
     14 C         140.9737  137.2248  163.4744 C.3     1  UNL1        0.2542
     15 C         140.1582  140.3919  161.6129 C.ar    1  UNL1        0.0245
     16 C         138.7584  140.6779  162.0697 C.ar    1  UNL1        0.0200
     17 C         137.5918  140.1902  161.2628 C.ar    1  UNL1        0.1019
     18 N         137.8249  139.4165  159.9990 N.ar    1  UNL1       -0.2076
     19 C         139.2247  139.1305  159.5422 C.ar    1  UNL1        0.2598
     20 C         140.3914  139.6183  160.3491 C.ar    1  UNL1        0.1879
     21 O         139.4579  138.3569  158.2785 O.3     1  UNL1       -0.4541
     22 C         139.6646  139.0826  156.9822 C.3     1  UNL1        0.2543
     23 O         141.7912  139.3323  159.8923 O.3     1  UNL1       -0.4670
     24 C         142.3378  137.9379  159.9774 C.3     1  UNL1        0.2527
     25 C         142.4436  141.6202  161.7489 C.3     1  UNL1        0.1162
     26 O         143.3730  140.4792  162.0392 O.3     1  UNL1       -0.3820
     27 H         144.2554  140.6847  161.6927 H       1  UNL1        0.2107
     28 C         139.9723  144.6766  162.2974 C.ar    1  UNL1        0.2271
     29 C         140.9017  143.5356  162.5877 C.ar    1  UNL1        0.0559
     30 C         141.5142  142.7612  161.4585 C.ar    1  UNL1        0.0117
     31 C         141.1972  143.1278  160.0390 C.ar    1  UNL1        0.0559
     32 C         140.2678  144.2688  159.7487 C.ar    1  UNL1        0.2270
     33 N         139.6553  145.0432  160.8779 N.ar    1  UNL1       -0.1767
     34 O         139.3599  145.4511  163.4267 O.3     1  UNL1       -0.4602
     35 C         137.8592  143.6007  164.4630 C.3     1  UNL1        0.0512
     36 C         138.8322  144.7297  164.6314 C.3     1  UNL1        0.2072
     37 O         139.9508  144.6353  158.3291 O.3     1  UNL1       -0.4640
     38 C         141.0529  144.7364  157.3166 C.3     1  UNL1        0.1678
     39 C         141.1309  143.7473  156.1916 C.3     1  UNL1        0.0473
     40 C         142.0772  145.8265  157.4292 C.3     1  UNL1        0.0473
     41 C         143.5623  142.3607  161.0780 C.3     1  UNL1        0.0491
     42 C         144.4949  143.2082  161.8918 C.3     1  UNL1        0.0750
     43 N         144.8253  142.8180  163.3019 N.3     1  UNL1       -0.2702
     44 C         145.8233  141.7295  163.5647 C.3     1  UNL1        0.0897
     45 C         144.1575  143.5163  164.4494 C.3     1  UNL1        0.0897
@<TRIPOS>BOND
     1    35    36    1
     2    36    34    1
     3    34    28    1
     4    28    29   ar
     5    29    30   ar
     6    30    25    1
     7    25    26    1
     8    25    41    1
     9    41    42    1
    10    42    43    1
    11    43    44    1
    12    43    45    1
    13    25     1    1
    14     1     2    1
    15     2     3   ar
    16     3     4   ar
    17     4     5   ar
    18     5     6   ar
    19     6     7    1
    20     6     8   ar
    21     8     9   ar
    22     9    10   ar
    23    10    11   ar
    24    11    12   ar
    25    12    13    1
    26    13    14    1
    27     1    15    1
    28    15    16   ar
    29    16    17   ar
    30    17    18   ar
    31    18    19   ar
    32    19    21    1
    33    21    22    1
    34    19    20   ar
    35    20    23    1
    36    23    24    1
    37    30    31   ar
    38    31    32   ar
    39    32    37    1
    40    37    38    1
    41    38    39    1
    42    38    40    1
    43    32    33   ar
    44    33    28   ar
    45    12     2   ar
    46    20    15   ar
    47    10     4   ar
    48    26    27    1
@<TRIPOS>MOLECULE
*****
 45 48 0 0 0
SMALL
GASTEIGER

@<TRIPOS>ATOM
      1 C         140.3332  141.4243  161.4267 C.3     1  UNL1        0.0808
      2 C         140.0560  141.0095  162.8414 C.ar    1  UNL1        0.0375
      3 C         141.0826  141.2500  163.9083 C.ar    1  UNL1        0.0023
      4 C         140.8055  140.8353  165.3229 C.ar    1  UNL1        0.0181
      5 C         141.8320  141.0758  166.3898 C.ar    1  UNL1        0.0082
      6 C         141.5548  140.6610  167.8045 C.ar    1  UNL1        0.0347
      7 BR        142.5814  140.9015  168.8714 Br      1  UNL1       -0.0490
      8 C         140.2511  140.0058  168.1522 C.ar    1  UNL1        0.0082
      9 C         139.2245  139.7654  167.0853 C.ar    1  UNL1        0.0197
     10 C         139.5017  140.1801  165.6707 C.ar    1  UNL1        0.0844
     11 N         138.4751  139.9396  164.6037 N.ar    1  UNL1       -0.2119
     12 C         138.7523  140.3543  163.1891 C.ar    1  UNL1        0.2211
     13 O         137.7257  140.1139  162.1222 O.3     1  UNL1       -0.4563
     14 C         137.7318  138.6355  161.8683 C.3     1  UNL1        0.2542
     15 C         140.5622  140.3835  160.3712 C.ar    1  UNL1        0.0245
     16 C         141.7256  139.4435  160.4846 C.ar    1  UNL1        0.0200
     17 C         141.9545  138.4026  159.4290 C.ar    1  UNL1        0.1019
     18 N         141.0200  138.3018  158.2600 N.ar    1  UNL1       -0.2076
     19 C         139.8566  139.2418  158.1466 C.ar    1  UNL1        0.2598
     20 C         139.6277  140.2826  159.2022 C.ar    1  UNL1        0.1879
     21 O         138.9221  139.1410  156.9776 O.3     1  UNL1       -0.4541
     22 C         139.2736  138.2681  155.8095 C.3     1  UNL1        0.2543
     23 O         138.4643  141.2226  159.0888 O.3     1  UNL1       -0.4670
     24 C         138.4693  142.2998  158.0448 C.3     1  UNL1        0.2527
     25 C         140.3815  142.8799  161.0677 C.3     1  UNL1        0.1162
     26 O         138.9324  143.0173  161.4298 O.3     1  UNL1       -0.3820
     27 H         138.6494  143.9343  161.2889 H       1  UNL1        0.2107
     28 C         143.6992  142.6349  158.9037 C.ar    1  UNL1        0.2271
     29 C         142.2500  142.7723  159.2658 C.ar    1  UNL1        0.0559
     30 C         141.8307  142.7425  160.7056 C.ar    1  UNL1        0.0117
     31 C         142.8604  142.5754  161.7834 C.ar    1  UNL1        0.0559
     32 C         144.3096  142.4380  161.4213 C.ar    1  UNL1        0.2270
     33 N         144.7290  142.4678  159.9814 N.ar    1  UNL1       -0.1767
     34 O         144.1186  142.6647  157.4637 O.3     1  UNL1       -0.4602
     35 C         146.6119  142.3924  156.7864 C.3     1  UNL1        0.0512
     36 C         145.2500  141.7991  156.9941 C.3     1  UNL1        0.2072
     37 O         145.3394  142.2709  162.4991 O.3     1  UNL1       -0.4640
     38 C         144.9174  141.8880  163.8867 C.3     1  UNL1        0.1678
     39 C         144.6248  142.9525  164.9022 C.3     1  UNL1        0.0473
     40 C         144.7879  140.4406  164.2588 C.3     1  UNL1        0.0473
     41 C         140.4298  144.3355  160.7087 C.3     1  UNL1        0.0491
     42 C         140.0525  145.3717  161.7256 C.3     1  UNL1        0.0750
     43 N         140.4098  145.1714  163.1686 N.3     1  UNL1       -0.2702
     44 C         139.3504  144.7817  164.1564 C.3     1  UNL1        0.0897
     45 C         141.8265  145.3607  163.6237 C.3     1  UNL1        0.0897
@<TRIPOS>BOND
     1    35    36    1
     2    36    34    1
     3    34    28    1
     4    28    29   ar
     5    29    30   ar
     6    30    25    1
     7    25    26    1
     8    25    41    1
     9    41    42    1
    10    42    43    1
    11    43    44    1
    12    43    45    1
    13    25     1    1
    14     1     2    1
    15     2     3   ar
    16     3     4   ar
    17     4     5   ar
    18     5     6   ar
    19     6     7    1
    20     6     8   ar
    21     8     9   ar
    22     9    10   ar
    23    10    11   ar
    24    11    12   ar
    25    12    13    1
    26    13    14    1
    27     1    15    1
    28    15    16   ar
    29    16    17   ar
    30    17    18   ar
    31    18    19   ar
    32    19    21    1
    33    21    22    1
    34    19    20   ar
    35    20    23    1
    36    23    24    1
    37    30    31   ar
    38    31    32   ar
    39    32    37    1
    40    37    38    1
    41    38    39    1
    42    38    40    1
    43    32    33   ar
    44    33    28   ar
    45    12     2   ar
    46    20    15   ar
    47    10     4   ar
    48    26    27    1
@<TRIPOS>MOLECULE
*****
 45 48 0 0 0
SMALL
GASTEIGER

@<TRIPOS>ATOM
      1 C         141.3728  142.3777  162.4169 C.3     1  UNL1        0.0808
      2 C         141.8675  142.3271  163.8321 C.ar    1  UNL1        0.0375
      3 C         141.0195  141.7042  164.9012 C.ar    1  UNL1        0.0023
      4 C         141.5142  141.6536  166.3164 C.ar    1  UNL1        0.0181
      5 C         140.6662  141.0308  167.3855 C.ar    1  UNL1        0.0082
      6 C         141.1609  140.9802  168.8007 C.ar    1  UNL1        0.0347
      7 BR        140.3129  140.3574  169.8698 Br      1  UNL1       -0.0490
      8 C         142.5036  141.5524  169.1468 C.ar    1  UNL1        0.0082
      9 C         143.3516  142.1752  168.0776 C.ar    1  UNL1        0.0197
     10 C         142.8569  142.2258  166.6625 C.ar    1  UNL1        0.0844
     11 N         143.7049  142.8486  165.5934 N.ar    1  UNL1       -0.2119
     12 C         143.2102  142.8992  164.1782 C.ar    1  UNL1        0.2211
     13 O         144.0582  143.5221  163.1091 O.3     1  UNL1       -0.4563
     14 C         143.8737  145.0043  163.2462 C.3     1  UNL1        0.2542
     15 C         142.2154  141.8216  161.3075 C.ar    1  UNL1        0.0245
     16 C         142.4978  142.6529  160.0913 C.ar    1  UNL1        0.0200
     17 C         143.3404  142.0969  158.9819 C.ar    1  UNL1        0.1019
     18 N         143.9006  140.7095  159.0887 N.ar    1  UNL1       -0.2076
     19 C         143.6181  139.8781  160.3049 C.ar    1  UNL1        0.2598
     20 C         142.7754  140.4343  161.4143 C.ar    1  UNL1        0.1879
     21 O         144.1782  138.4908  160.4117 O.3     1  UNL1       -0.4541
     22 C         143.2705  137.3036  160.2825 C.3     1  UNL1        0.2543
     23 O         142.4930  139.6029  162.6305 O.3     1  UNL1       -0.4670
     24 C         143.6084  139.2365  163.5641 C.3     1  UNL1        0.2527
     25 C         140.0354  142.9843  162.1112 C.3     1  UNL1        0.1162
     26 O         140.5492  144.3292  162.5324 O.3     1  UNL1       -0.3820
     27 H         139.8446  144.9890  162.4368 H       1  UNL1        0.2107
     28 C         138.7236  140.0199  159.8219 C.ar    1  UNL1        0.2271
     29 C         139.2374  141.3647  160.2431 C.ar    1  UNL1        0.0559
     30 C         139.5216  141.6395  161.6900 C.ar    1  UNL1        0.0117
     31 C         139.2921  140.5694  162.7158 C.ar    1  UNL1        0.0559
     32 C         138.7783  139.2246  162.2946 C.ar    1  UNL1        0.2270
     33 N         138.4940  138.9498  160.8477 N.ar    1  UNL1       -0.1767
     34 O         138.4393  139.7451  158.3749 O.3     1  UNL1       -0.4602
     35 C         140.8674  138.9018  157.9967 C.3     1  UNL1        0.0512
     36 C         139.5610  139.3901  157.4445 C.3     1  UNL1        0.2072
     37 O         138.5488  138.1545  163.3204 O.3     1  UNL1       -0.4640
     38 C         139.1010  138.3130  164.7060 C.3     1  UNL1        0.1678
     39 C         138.2360  138.8664  165.7994 C.3     1  UNL1        0.0473
     40 C         140.5183  137.9181  164.9983 C.3     1  UNL1        0.0473
     41 C         138.6981  143.5910  161.8055 C.3     1  UNL1        0.0491
     42 C         137.9877  144.4041  162.8468 C.3     1  UNL1        0.0750
     43 N         138.0255  143.9791  164.2848 N.3     1  UNL1       -0.2702
     44 C         137.5113  142.6269  164.6810 C.3     1  UNL1        0.0897
     45 C         138.5775  144.9065  165.3267 C.3     1  UNL1        0.0897
@<TRIPOS>BOND
     1    35    36    1
     2    36    34    1
     3    34    28    1
     4    28    29   ar
     5    29    30   ar
     6    30    25    1
     7    25    26    1
     8    25    41    1
     9    41    42    1
    10    42    43    1
    11    43    44    1
    12    43    45    1
    13    25     1    1
    14     1     2    1
    15     2     3   ar
    16     3     4   ar
    17     4     5   ar
    18     5     6   ar
    19     6     7    1
    20     6     8   ar
    21     8     9   ar
    22     9    10   ar
    23    10    11   ar
    24    11    12   ar
    25    12    13    1
    26    13    14    1
    27     1    15    1
    28    15    16   ar
    29    16    17   ar
    30    17    18   ar
    31    18    19   ar
    32    19    21    1
    33    21    22    1
    34    19    20   ar
    35    20    23    1
    36    23    24    1
    37    30    31   ar
    38    31    32   ar
    39    32    37    1
    40    37    38    1
    41    38    39    1
    42    38    40    1
    43    32    33   ar
    44    33    28   ar
    45    12     2   ar
    46    20    15   ar
    47    10     4   ar
    48    26    27    1
@<TRIPOS>MOLECULE
*****
 45 48 0 0 0
SMALL
GASTEIGER

@<TRIPOS>ATOM
      1 C         141.0078  141.5062  158.6739 C.3     1  UNL1        0.0808
      2 C         141.5677  142.3287  159.7964 C.ar    1  UNL1        0.0375
      3 C         141.7504  141.7186  161.1545 C.ar    1  UNL1        0.0023
      4 C         142.3103  142.5411  162.2770 C.ar    1  UNL1        0.0181
      5 C         142.4931  141.9310  163.6351 C.ar    1  UNL1        0.0082
      6 C         143.0530  142.7536  164.7576 C.ar    1  UNL1        0.0347
      7 BR        143.2358  142.1435  166.1157 Br      1  UNL1       -0.0490
      8 C         143.4302  144.1861  164.5220 C.ar    1  UNL1        0.0082
      9 C         143.2474  144.7962  163.1639 C.ar    1  UNL1        0.0197
     10 C         142.6875  143.9737  162.0414 C.ar    1  UNL1        0.0844
     11 N         142.5048  144.5838  160.6833 N.ar    1  UNL1       -0.2119
     12 C         141.9449  143.7612  159.5608 C.ar    1  UNL1        0.2211
     13 O         141.7621  144.3713  158.2027 O.3     1  UNL1       -0.4563
     14 C         140.7833  145.4937  158.3820 C.3     1  UNL1        0.2542
     15 C         141.7464  140.2927  158.1924 C.ar    1  UNL1        0.0245
     16 C         141.2422  138.9224  158.5357 C.ar    1  UNL1        0.0200
     17 C         141.9808  137.7090  158.0542 C.ar    1  UNL1        0.1019
     18 N         143.2238  137.8658  157.2293 N.ar    1  UNL1       -0.2076
     19 C         143.7281  139.2362  156.8859 C.ar    1  UNL1        0.2598
     20 C         142.9894  140.4496  157.3675 C.ar    1  UNL1        0.1879
     21 O         144.9710  139.3931  156.0611 O.3     1  UNL1       -0.4541
     22 C         144.9055  139.2432  154.5701 C.3     1  UNL1        0.2543
     23 O         143.4936  141.8200  157.0242 O.3     1  UNL1       -0.4670
     24 C         144.7307  142.3514  157.6856 C.3     1  UNL1        0.2527
     25 C         139.7092  141.8971  158.0330 C.3     1  UNL1        0.1162
     26 O         140.4103  142.0707  156.7183 O.3     1  UNL1       -0.3820
     27 H         139.7697  142.3465  156.0442 H       1  UNL1        0.2107
     28 C         137.8702  140.1849  161.1049 C.ar    1  UNL1        0.2271
     29 C         138.5713  140.3585  159.7902 C.ar    1  UNL1        0.0559
     30 C         139.0081  141.7235  159.3476 C.ar    1  UNL1        0.0117
     31 C         138.7437  142.9149  160.2197 C.ar    1  UNL1        0.0559
     32 C         138.0426  142.7413  161.5344 C.ar    1  UNL1        0.2270
     33 N         137.6058  141.3763  161.9770 N.ar    1  UNL1       -0.1767
     34 O         137.4334  138.8198  161.5474 O.3     1  UNL1       -0.4602
     35 C         139.8271  137.9708  162.0945 C.3     1  UNL1        0.0512
     36 C         138.3531  137.9688  162.3721 C.3     1  UNL1        0.2072
     37 O         137.7782  143.9329  162.4065 O.3     1  UNL1       -0.4640
     38 C         138.9237  144.7450  162.9341 C.3     1  UNL1        0.1678
     39 C         139.5091  145.8460  162.1004 C.3     1  UNL1        0.0473
     40 C         139.4837  144.4561  164.2953 C.3     1  UNL1        0.0473
     41 C         138.4106  142.2881  157.3921 C.3     1  UNL1        0.0491
     42 C         138.1438  141.9314  155.9596 C.3     1  UNL1        0.0750
     43 N         137.6529  140.5585  155.6075 N.3     1  UNL1       -0.2702
     44 C         136.2104  140.3451  155.2558 C.3     1  UNL1        0.0897
     45 C         138.6045  139.3989  155.6071 C.3     1  UNL1        0.0897
@<TRIPOS>BOND
     1    35    36    1
     2    36    34    1
     3    34    28    1
     4    28    29   ar
     5    29    30   ar
     6    30    25    1
     7    25    26    1
     8    25    41    1
     9    41    42    1
    10    42    43    1
    11    43    44    1
    12    43    45    1
    13    25     1    1
    14     1     2    1
    15     2     3   ar
    16     3     4   ar
    17     4     5   ar
    18     5     6   ar
    19     6     7    1
    20     6     8   ar
    21     8     9   ar
    22     9    10   ar
    23    10    11   ar
    24    11    12   ar
    25    12    13    1
    26    13    14    1
    27     1    15    1
    28    15    16   ar
    29    16    17   ar
    30    17    18   ar
    31    18    19   ar
    32    19    21    1
    33    21    22    1
    34    19    20   ar
    35    20    23    1
    36    23    24    1
    37    30    31   ar
    38    31    32   ar
    39    32    37    1
    40    37    38    1
    41    38    39    1
    42    38    40    1
    43    32    33   ar
    44    33    28   ar
    45    12     2   ar
    46    20    15   ar
    47    10     4   ar
    48    26    27    1
@<TRIPOS>MOLECULE
*****
 45 48 0 0 0
SMALL
GASTEIGER

@<TRIPOS>ATOM
      1 C         140.3528  141.2835  162.4445 C.3     1  UNL1        0.0808
      2 C         140.3002  141.7998  163.8519 C.ar    1  UNL1        0.0375
      3 C         141.4338  141.5242  164.7947 C.ar    1  UNL1        0.0023
      4 C         141.3812  142.0404  166.2021 C.ar    1  UNL1        0.0181
      5 C         142.5148  141.7648  167.1450 C.ar    1  UNL1        0.0082
      6 C         142.4621  142.2811  168.5524 C.ar    1  UNL1        0.0347
      7 BR        143.5957  142.0055  169.4952 Br      1  UNL1       -0.0490
      8 C         141.2759  143.0730  169.0169 C.ar    1  UNL1        0.0082
      9 C         140.1423  143.3486  168.0740 C.ar    1  UNL1        0.0197
     10 C         140.1949  142.8324  166.6667 C.ar    1  UNL1        0.0844
     11 N         139.0613  143.1080  165.7238 N.ar    1  UNL1       -0.2119
     12 C         139.1140  142.5917  164.3164 C.ar    1  UNL1        0.2211
     13 O         137.9804  142.8673  163.3735 O.3     1  UNL1       -0.4563
     14 C         138.0844  144.3202  163.0155 C.3     1  UNL1        0.2542
     15 C         140.7744  142.1918  161.3277 C.ar    1  UNL1        0.0245
     16 C         142.1366  142.8196  161.3451 C.ar    1  UNL1        0.0200
     17 C         142.5581  143.7279  160.2283 C.ar    1  UNL1        0.1019
     18 N         141.6174  144.0085  159.0940 N.ar    1  UNL1       -0.2076
     19 C         140.2552  143.3807  159.0766 C.ar    1  UNL1        0.2598
     20 C         139.8337  142.4723  160.1935 C.ar    1  UNL1        0.1879
     21 O         139.3145  143.6612  157.9425 O.3     1  UNL1       -0.4541
     22 C         139.7135  143.3241  156.5364 C.3     1  UNL1        0.2543
     23 O         138.4715  141.8445  160.1761 O.3     1  UNL1       -0.4670
     24 C         138.1514  140.7749  159.1744 C.3     1  UNL1        0.2527
     25 C         139.9840  139.8589  162.1539 C.3     1  UNL1        0.1162
     26 O         138.5670  140.1440  162.5550 O.3     1  UNL1       -0.3820
     27 H         138.0366  139.3369  162.4643 H       1  UNL1        0.2107
     28 C         143.8998  139.2587  162.3904 C.ar    1  UNL1        0.2271
     29 C         142.4828  139.5438  162.7914 C.ar    1  UNL1        0.0559
     30 C         141.4010  139.5738  161.7529 C.ar    1  UNL1        0.0117
     31 C         141.7361  139.3187  160.3133 C.ar    1  UNL1        0.0559
     32 C         143.1531  139.0336  159.9122 C.ar    1  UNL1        0.2270
     33 N         144.2349  139.0036  160.9508 N.ar    1  UNL1       -0.1767
     34 O         144.9817  139.2287  163.4290 O.3     1  UNL1       -0.4602
     35 C         145.6805  141.7288  163.5336 C.3     1  UNL1        0.0512
     36 C         145.2869  140.4598  164.2297 C.3     1  UNL1        0.2072
     37 O         143.4882  138.7785  158.4725 O.3     1  UNL1       -0.4640
     38 C         143.5364  139.9196  157.5001 C.3     1  UNL1        0.1678
     39 C         142.7135  139.8723  156.2469 C.3     1  UNL1        0.0473
     40 C         144.4076  141.1080  157.7809 C.3     1  UNL1        0.0473
     41 C         139.6151  138.4343  161.8634 C.3     1  UNL1        0.0491
     42 C         138.9724  137.5941  162.9270 C.3     1  UNL1        0.0750
     43 N         139.5055  137.6219  164.3288 N.3     1  UNL1       -0.2702
     44 C         140.8770  137.0893  164.6203 C.3     1  UNL1        0.0897
     45 C         138.6669  138.1825  165.4391 C.3     1  UNL1        0.0897
@<TRIPOS>BOND
     1    35    36    1
     2    36    34    1
     3    34    28    1
     4    28    29   ar
     5    29    30   ar
     6    30    25    1
     7    25    26    1
     8    25    41    1
     9    41    42    1
    10    42    43    1
    11    43    44    1
    12    43    45    1
    13    25     1    1
    14     1     2    1
    15     2     3   ar
    16     3     4   ar
    17     4     5   ar
    18     5     6   ar
    19     6     7    1
    20     6     8   ar
    21     8     9   ar
    22     9    10   ar
    23    10    11   ar
    24    11    12   ar
    25    12    13    1
    26    13    14    1
    27     1    15    1
    28    15    16   ar
    29    16    17   ar
    30    17    18   ar
    31    18    19   ar
    32    19    21    1
    33    21    22    1
    34    19    20   ar
    35    20    23    1
    36    23    24    1
    37    30    31   ar
    38    31    32   ar
    39    32    37    1
    40    37    38    1
    41    38    39    1
    42    38    40    1
    43    32    33   ar
    44    33    28   ar
    45    12     2   ar
    46    20    15   ar
    47    10     4   ar
    48    26    27    1
@<TRIPOS>MOLECULE
*****
 45 48 0 0 0
SMALL
GASTEIGER

@<TRIPOS>ATOM
      1 C         140.8053  141.4385  159.0192 C.3     1  UNL1        0.0808
      2 C         141.3962  142.3434  160.0595 C.ar    1  UNL1        0.0375
      3 C         141.7339  141.8044  161.4180 C.ar    1  UNL1        0.0023
      4 C         142.3249  142.7091  162.4582 C.ar    1  UNL1        0.0181
      5 C         142.6625  142.1701  163.8167 C.ar    1  UNL1        0.0082
      6 C         143.2535  143.0749  164.8570 C.ar    1  UNL1        0.0347
      7 BR        143.5912  142.5359  166.2154 Br      1  UNL1       -0.0490
      8 C         143.5068  144.5187  164.5387 C.ar    1  UNL1        0.0082
      9 C         143.1691  145.0577  163.1803 C.ar    1  UNL1        0.0197
     10 C         142.5782  144.1530  162.1400 C.ar    1  UNL1        0.0844
     11 N         142.2405  144.6920  160.7816 N.ar    1  UNL1       -0.2119
     12 C         141.6495  143.7872  159.7413 C.ar    1  UNL1        0.2211
     13 O         141.3118  144.3262  158.3828 O.3     1  UNL1       -0.4563
     14 C         140.3511  145.4549  158.6130 C.3     1  UNL1        0.2542
     15 C         141.5989  140.2781  158.4962 C.ar    1  UNL1        0.0245
     16 C         141.2219  138.8779  158.8799 C.ar    1  UNL1        0.0200
     17 C         142.0156  137.7175  158.3569 C.ar    1  UNL1        0.1019
     18 N         143.1862  137.9573  157.4502 N.ar    1  UNL1       -0.2076
     19 C         143.5632  139.3576  157.0665 C.ar    1  UNL1        0.2598
     20 C         142.7695  140.5180  157.5896 C.ar    1  UNL1        0.1879
     21 O         144.7338  139.5974  156.1598 O.3     1  UNL1       -0.4541
     22 C         144.7465  139.0096  154.7799 C.3     1  UNL1        0.2543
     23 O         143.1465  141.9182  157.2059 O.3     1  UNL1       -0.4670
     24 C         144.3896  142.5412  157.7687 C.3     1  UNL1        0.2527
     25 C         139.4207  141.6942  158.5020 C.3     1  UNL1        0.1162
     26 O         139.9723  141.8870  157.1206 O.3     1  UNL1       -0.3820
     27 H         139.2470  142.0845  156.5074 H       1  UNL1        0.2107
     28 C         137.9228  142.4987  162.0880 C.ar    1  UNL1        0.2271
     29 C         138.4745  142.6916  160.7065 C.ar    1  UNL1        0.0559
     30 C         138.8690  141.5013  159.8835 C.ar    1  UNL1        0.0117
     31 C         138.7119  140.1181  160.4420 C.ar    1  UNL1        0.0559
     32 C         138.1603  139.9252  161.8235 C.ar    1  UNL1        0.2270
     33 N         137.7657  141.1155  162.6465 N.ar    1  UNL1       -0.1767
     34 O         137.5283  143.6892  162.9110 O.3     1  UNL1       -0.4602
     35 C         139.5279  144.5611  164.3221 C.3     1  UNL1        0.0512
     36 C         138.5357  144.7583  163.2145 C.3     1  UNL1        0.2072
     37 O         138.0032  138.5419  162.3820 O.3     1  UNL1       -0.4640
     38 C         139.0895  137.9468  163.2281 C.3     1  UNL1        0.1678
     39 C         138.8486  137.6896  164.6861 C.3     1  UNL1        0.0473
     40 C         140.4167  137.6090  162.6161 C.3     1  UNL1        0.0473
     41 C         138.0360  141.9498  157.9848 C.3     1  UNL1        0.0491
     42 C         137.5703  141.2806  156.7257 C.3     1  UNL1        0.0750
     43 N         137.3766  142.0865  155.4755 N.3     1  UNL1       -0.2702
     44 C         137.7195  141.4944  154.1407 C.3     1  UNL1        0.0897
     45 C         136.8400  143.4848  155.5602 C.3     1  UNL1        0.0897
@<TRIPOS>BOND
     1    35    36    1
     2    36    34    1
     3    34    28    1
     4    28    29   ar
     5    29    30   ar
     6    30    25    1
     7    25    26    1
     8    25    41    1
     9    41    42    1
    10    42    43    1
    11    43    44    1
    12    43    45    1
    13    25     1    1
    14     1     2    1
    15     2     3   ar
    16     3     4   ar
    17     4     5   ar
    18     5     6   ar
    19     6     7    1
    20     6     8   ar
    21     8     9   ar
    22     9    10   ar
    23    10    11   ar
    24    11    12   ar
    25    12    13    1
    26    13    14    1
    27     1    15    1
    28    15    16   ar
    29    16    17   ar
    30    17    18   ar
    31    18    19   ar
    32    19    21    1
    33    21    22    1
    34    19    20   ar
    35    20    23    1
    36    23    24    1
    37    30    31   ar
    38    31    32   ar
    39    32    37    1
    40    37    38    1
    41    38    39    1
    42    38    40    1
    43    32    33   ar
    44    33    28   ar
    45    12     2   ar
    46    20    15   ar
    47    10     4   ar
    48    26    27    1
