@<TRIPOS>MOLECULE
*****
 22 24 0 0 0
SMALL
GASTEIGER

@<TRIPOS>ATOM
      1 C         138.7615  142.9153  164.1818 C.3     1  UNL1        0.1038
      2 C         138.6446  144.2410  163.4899 C.3     1  UNL1        0.2106
      3 O         139.8623  145.0945  163.2933 O.3     1  UNL1       -0.4755
      4 C         141.1971  144.6222  163.7887 C.ar    1  UNL1        0.1379
      5 C         142.4149  145.4756  163.5922 C.ar    1  UNL1        0.0367
      6 C         143.7496  145.0033  164.0875 C.ar    1  UNL1        0.0031
      7 C         143.8665  143.6776  164.7795 C.ar    1  UNL1       -0.0000
      8 C         142.6488  142.8242  164.9760 C.ar    1  UNL1        0.0022
      9 C         141.3141  143.2965  164.4806 C.ar    1  UNL1        0.0513
     10 C         140.0962  142.4430  164.6772 C.3     1  UNL1        0.1959
     11 C         137.5437  142.0618  164.3783 C.3     1  UNL1        0.0763
     12 C         137.6844  140.8020  162.1106 C.3     1  UNL1        0.0859
     13 N         136.8657  141.4384  163.1944 N.3     1  UNL1       -0.2961
     14 H         136.2449  140.7152  163.5577 H       1  UNL1        0.1233
     15 O         140.2132  141.1173  165.3691 O.3     1  UNL1       -0.4748
     16 C         139.9478  141.0139  166.8419 C.ar    1  UNL1        0.1348
     17 C         140.5514  142.0124  167.7846 C.ar    1  UNL1        0.0366
     18 C         140.2860  141.9091  169.2573 C.ar    1  UNL1        0.0031
     19 C         139.4171  140.8072  169.7873 C.ar    1  UNL1       -0.0001
     20 C         138.8135  139.8088  168.8446 C.ar    1  UNL1       -0.0013
     21 C         139.0789  139.9121  167.3719 C.ar    1  UNL1        0.0121
     22 C         138.4753  138.9136  166.4291 C.3     1  UNL1        0.0342
@<TRIPOS>BOND
     1    12    13    1
     2    13    11    1
     3     1    11    1
     4     1     2    1
     5     2     3    1
     6     3     4    1
     7     4     5   ar
     8     5     6   ar
     9     6     7   ar
    10     7     8   ar
    11     8     9   ar
    12     9    10    1
    13    10    15    1
    14    15    16    1
    15    16    17   ar
    16    17    18   ar
    17    18    19   ar
    18    19    20   ar
    19    20    21   ar
    20    21    22    1
    21    10     1    1
    22    21    16   ar
    23     9     4   ar
    24    13    14    1
@<TRIPOS>MOLECULE
*****
 22 24 0 0 0
SMALL
GASTEIGER

@<TRIPOS>ATOM
      1 C         138.7614  143.0130  164.1572 C.3     1  UNL1        0.1038
      2 C         138.7672  144.2685  163.3366 C.3     1  UNL1        0.2106
      3 O         140.0432  145.0332  163.1445 O.3     1  UNL1       -0.4755
      4 C         141.3137  144.5422  163.7732 C.ar    1  UNL1        0.1379
      5 C         142.5897  145.3069  163.5812 C.ar    1  UNL1        0.0367
      6 C         143.8600  144.8160  164.2098 C.ar    1  UNL1        0.0031
      7 C         143.8543  143.5604  165.0305 C.ar    1  UNL1       -0.0000
      8 C         142.5782  142.7958  165.2225 C.ar    1  UNL1        0.0022
      9 C         141.3079  143.2867  164.5939 C.ar    1  UNL1        0.0513
     10 C         140.0317  142.5220  164.7859 C.3     1  UNL1        0.1959
     11 C         137.4853  142.2483  164.3493 C.3     1  UNL1        0.0763
     12 C         137.7878  140.7755  162.2305 C.3     1  UNL1        0.0859
     13 N         136.8920  141.4800  163.2057 N.3     1  UNL1       -0.2961
     14 H         136.2832  140.7698  163.6124 H       1  UNL1        0.1233
     15 O         140.0260  141.2665  165.6066 O.3     1  UNL1       -0.4748
     16 C         140.1342  139.9302  164.9337 C.ar    1  UNL1        0.1348
     17 C         141.2131  139.6856  163.9209 C.ar    1  UNL1        0.0366
     18 C         141.3213  138.3494  163.2481 C.ar    1  UNL1        0.0031
     19 C         140.3504  137.2577  163.5881 C.ar    1  UNL1       -0.0001
     20 C         139.2715  137.5022  164.6010 C.ar    1  UNL1       -0.0013
     21 C         139.1633  138.8384  165.2738 C.ar    1  UNL1        0.0121
     22 C         138.0843  139.0831  166.2867 C.3     1  UNL1        0.0342
@<TRIPOS>BOND
     1    12    13    1
     2    13    11    1
     3     1    11    1
     4     1     2    1
     5     2     3    1
     6     3     4    1
     7     4     5   ar
     8     5     6   ar
     9     6     7   ar
    10     7     8   ar
    11     8     9   ar
    12     9    10    1
    13    10    15    1
    14    15    16    1
    15    16    17   ar
    16    17    18   ar
    17    18    19   ar
    18    19    20   ar
    19    20    21   ar
    20    21    22    1
    21    10     1    1
    22    21    16   ar
    23     9     4   ar
    24    13    14    1
@<TRIPOS>MOLECULE
*****
 22 24 0 0 0
SMALL
GASTEIGER

@<TRIPOS>ATOM
      1 C         138.7661  139.1484  165.5763 C.3     1  UNL1        0.1038
      2 C         138.0180  138.4252  166.6567 C.3     1  UNL1        0.2106
      3 O         138.1260  138.8848  168.0804 O.3     1  UNL1       -0.4755
      4 C         138.9822  140.0677  168.4238 C.ar    1  UNL1        0.1379
      5 C         139.0902  140.5273  169.8475 C.ar    1  UNL1        0.0367
      6 C         139.9463  141.7101  170.1908 C.ar    1  UNL1        0.0031
      7 C         140.6944  142.4334  169.1104 C.ar    1  UNL1       -0.0000
      8 C         140.5864  141.9738  167.6867 C.ar    1  UNL1        0.0022
      9 C         139.7303  140.7909  167.3434 C.ar    1  UNL1        0.0513
     10 C         139.6222  140.3312  165.9196 C.3     1  UNL1        0.1959
     11 C         138.6581  138.6887  164.1525 C.3     1  UNL1        0.0763
     12 C         140.8675  137.3721  163.7852 C.3     1  UNL1        0.0859
     13 N         139.8997  138.4326  163.3508 N.3     1  UNL1       -0.2961
     14 H         139.5963  138.1862  162.4086 H       1  UNL1        0.1233
     15 O         140.3703  141.0545  164.8392 O.3     1  UNL1       -0.4748
     16 C         139.8279  142.3366  164.2806 C.ar    1  UNL1        0.1348
     17 C         138.3875  142.4265  163.8716 C.ar    1  UNL1        0.0366
     18 C         137.8452  143.7086  163.3131 C.ar    1  UNL1        0.0031
     19 C         138.7431  144.9008  163.1635 C.ar    1  UNL1       -0.0001
     20 C         140.1835  144.8109  163.5724 C.ar    1  UNL1       -0.0013
     21 C         140.7259  143.5288  164.1309 C.ar    1  UNL1        0.0121
     22 C         142.1663  143.4388  164.5399 C.3     1  UNL1        0.0342
@<TRIPOS>BOND
     1    12    13    1
     2    13    11    1
     3     1    11    1
     4     1     2    1
     5     2     3    1
     6     3     4    1
     7     4     5   ar
     8     5     6   ar
     9     6     7   ar
    10     7     8   ar
    11     8     9   ar
    12     9    10    1
    13    10    15    1
    14    15    16    1
    15    16    17   ar
    16    17    18   ar
    17    18    19   ar
    18    19    20   ar
    19    20    21   ar
    20    21    22    1
    21    10     1    1
    22    21    16   ar
    23     9     4   ar
    24    13    14    1
@<TRIPOS>MOLECULE
*****
 22 24 0 0 0
SMALL
GASTEIGER

@<TRIPOS>ATOM
      1 C         141.9750  143.8707  163.9032 C.3     1  UNL1        0.1038
      2 C         143.3195  144.3104  163.4042 C.3     1  UNL1        0.2106
      3 O         144.4650  143.3422  163.3828 O.3     1  UNL1       -0.4755
      4 C         144.2660  141.9342  163.8604 C.ar    1  UNL1        0.1379
      5 C         145.4114  140.9660  163.8390 C.ar    1  UNL1        0.0367
      6 C         145.2124  139.5581  164.3166 C.ar    1  UNL1        0.0031
      7 C         143.8679  139.1184  164.8155 C.ar    1  UNL1       -0.0000
      8 C         142.7224  140.0866  164.8369 C.ar    1  UNL1        0.0022
      9 C         142.9215  141.4945  164.3594 C.ar    1  UNL1        0.0513
     10 C         141.7760  142.4628  164.3808 C.3     1  UNL1        0.1959
     11 C         140.8296  144.8390  163.9246 C.3     1  UNL1        0.0763
     12 C         139.9124  146.1777  161.8956 C.3     1  UNL1        0.0859
     13 N         140.8615  146.0579  163.0510 N.3     1  UNL1       -0.2961
     14 H         140.6895  146.8596  163.6577 H       1  UNL1        0.1233
     15 O         140.4315  142.0231  164.8797 O.3     1  UNL1       -0.4748
     16 C         140.2343  141.7194  166.3355 C.ar    1  UNL1        0.1348
     17 C         140.6605  142.7146  167.3736 C.ar    1  UNL1        0.0366
     18 C         140.4633  142.4109  168.8292 C.ar    1  UNL1        0.0031
     19 C         139.8400  141.1120  169.2467 C.ar    1  UNL1       -0.0001
     20 C         139.4138  140.1168  168.2085 C.ar    1  UNL1       -0.0013
     21 C         139.6110  140.4205  166.7529 C.ar    1  UNL1        0.0121
     22 C         139.1848  139.4252  165.7146 C.3     1  UNL1        0.0342
@<TRIPOS>BOND
     1    12    13    1
     2    13    11    1
     3     1    11    1
     4     1     2    1
     5     2     3    1
     6     3     4    1
     7     4     5   ar
     8     5     6   ar
     9     6     7   ar
    10     7     8   ar
    11     8     9   ar
    12     9    10    1
    13    10    15    1
    14    15    16    1
    15    16    17   ar
    16    17    18   ar
    17    18    19   ar
    18    19    20   ar
    19    20    21   ar
    20    21    22    1
    21    10     1    1
    22    21    16   ar
    23     9     4   ar
    24    13    14    1
@<TRIPOS>MOLECULE
*****
 22 24 0 0 0
SMALL
GASTEIGER

@<TRIPOS>ATOM
      1 C         138.8476  139.3691  165.5886 C.3     1  UNL1        0.1038
      2 C         138.0375  138.6506  166.6265 C.3     1  UNL1        0.2106
      3 O         138.1686  139.0262  168.0728 O.3     1  UNL1       -0.4755
      4 C         139.1099  140.1204  168.4811 C.ar    1  UNL1        0.1379
      5 C         139.2410  140.4961  169.9273 C.ar    1  UNL1        0.0367
      6 C         140.1823  141.5903  170.3356 C.ar    1  UNL1        0.0031
      7 C         140.9924  142.3088  169.2976 C.ar    1  UNL1       -0.0000
      8 C         140.8613  141.9332  167.8514 C.ar    1  UNL1        0.0022
      9 C         139.9200  140.8390  167.4431 C.ar    1  UNL1        0.0513
     10 C         139.7889  140.4633  165.9968 C.3     1  UNL1        0.1959
     11 C         138.7164  138.9934  164.1423 C.3     1  UNL1        0.0763
     12 C         137.4680  141.0050  163.0722 C.3     1  UNL1        0.0859
     13 N         138.6353  140.0631  163.0939 N.3     1  UNL1       -0.2961
     14 H         139.4738  140.6356  163.1918 H       1  UNL1        0.1233
     15 O         140.5990  141.1818  164.9589 O.3     1  UNL1       -0.4748
     16 C         142.0323  140.8026  164.7312 C.ar    1  UNL1        0.1348
     17 C         142.4128  139.3585  164.5908 C.ar    1  UNL1        0.0366
     18 C         143.8461  138.9793  164.3632 C.ar    1  UNL1        0.0031
     19 C         144.8989  140.0442  164.2759 C.ar    1  UNL1       -0.0001
     20 C         144.5184  141.4883  164.4163 C.ar    1  UNL1       -0.0013
     21 C         143.0851  141.8675  164.6439 C.ar    1  UNL1        0.0121
     22 C         142.7046  143.3116  164.7843 C.3     1  UNL1        0.0342
@<TRIPOS>BOND
     1    12    13    1
     2    13    11    1
     3     1    11    1
     4     1     2    1
     5     2     3    1
     6     3     4    1
     7     4     5   ar
     8     5     6   ar
     9     6     7   ar
    10     7     8   ar
    11     8     9   ar
    12     9    10    1
    13    10    15    1
    14    15    16    1
    15    16    17   ar
    16    17    18   ar
    17    18    19   ar
    18    19    20   ar
    19    20    21   ar
    20    21    22    1
    21    10     1    1
    22    21    16   ar
    23     9     4   ar
    24    13    14    1
@<TRIPOS>MOLECULE
*****
 22 24 0 0 0
SMALL
GASTEIGER

@<TRIPOS>ATOM
      1 C         139.6380  138.9050  163.9581 C.3     1  UNL1        0.1038
      2 C         138.4108  138.9698  163.0980 C.3     1  UNL1        0.2106
      3 O         137.6543  140.2583  162.9664 O.3     1  UNL1       -0.4755
      4 C         138.1251  141.4822  163.6950 C.ar    1  UNL1        0.1379
      5 C         137.3686  142.7707  163.5634 C.ar    1  UNL1        0.0367
      6 C         137.8394  143.9945  164.2919 C.ar    1  UNL1        0.0031
      7 C         139.0666  143.9297  165.1519 C.ar    1  UNL1       -0.0000
      8 C         139.8231  142.6411  165.2835 C.ar    1  UNL1        0.0022
      9 C         139.3523  141.4174  164.5550 C.ar    1  UNL1        0.0513
     10 C         140.1088  140.1287  164.6866 C.3     1  UNL1        0.1959
     11 C         140.3945  137.6163  164.0896 C.3     1  UNL1        0.0763
     12 C         141.9838  137.9837  162.0675 C.3     1  UNL1        0.0859
     13 N         141.1525  137.0686  162.9169 N.3     1  UNL1       -0.2961
     14 H         141.7813  136.3527  163.2810 H       1  UNL1        0.1233
     15 O         141.3360  140.0640  165.5466 O.3     1  UNL1       -0.4748
     16 C         142.6918  140.2586  164.9349 C.ar    1  UNL1        0.1348
     17 C         142.9475  141.4318  164.0360 C.ar    1  UNL1        0.0366
     18 C         144.3032  141.6264  163.4243 C.ar    1  UNL1        0.0031
     19 C         145.4031  140.6477  163.7114 C.ar    1  UNL1       -0.0001
     20 C         145.1473  139.4745  164.6103 C.ar    1  UNL1       -0.0013
     21 C         143.7916  139.2799  165.2220 C.ar    1  UNL1        0.0121
     22 C         143.5358  138.1066  166.1210 C.3     1  UNL1        0.0342
@<TRIPOS>BOND
     1    12    13    1
     2    13    11    1
     3     1    11    1
     4     1     2    1
     5     2     3    1
     6     3     4    1
     7     4     5   ar
     8     5     6   ar
     9     6     7   ar
    10     7     8   ar
    11     8     9   ar
    12     9    10    1
    13    10    15    1
    14    15    16    1
    15    16    17   ar
    16    17    18   ar
    17    18    19   ar
    18    19    20   ar
    19    20    21   ar
    20    21    22    1
    21    10     1    1
    22    21    16   ar
    23     9     4   ar
    24    13    14    1
@<TRIPOS>MOLECULE
*****
 22 24 0 0 0
SMALL
GASTEIGER

@<TRIPOS>ATOM
      1 C         142.8655  143.8750  163.8249 C.3     1  UNL1        0.1038
      2 C         142.2217  145.1396  163.3390 C.3     1  UNL1        0.2106
      3 O         140.7269  145.2632  163.3257 O.3     1  UNL1       -0.4755
      4 C         139.8758  144.1220  163.7985 C.ar    1  UNL1        0.1379
      5 C         138.3810  144.2455  163.7852 C.ar    1  UNL1        0.0367
      6 C         137.5300  143.1043  164.2579 C.ar    1  UNL1        0.0031
      7 C         138.1738  141.8397  164.7439 C.ar    1  UNL1       -0.0000
      8 C         139.6686  141.7162  164.7571 C.ar    1  UNL1        0.0022
      9 C         140.5196  142.8573  164.2844 C.ar    1  UNL1        0.0513
     10 C         142.0145  142.7338  164.2977 C.3     1  UNL1        0.1959
     11 C         144.3604  143.7515  163.8382 C.3     1  UNL1        0.0763
     12 C         145.8278  141.6211  163.5978 C.3     1  UNL1        0.0859
     13 N         145.0363  142.7307  162.9715 N.3     1  UNL1       -0.2961
     14 H         144.3067  142.2915  162.4102 H       1  UNL1        0.1233
     15 O         142.6583  141.4692  164.7836 O.3     1  UNL1       -0.4748
     16 C         142.7320  141.1822  166.2541 C.ar    1  UNL1        0.1348
     17 C         142.9986  142.2957  167.2231 C.ar    1  UNL1        0.0366
     18 C         143.0724  142.0087  168.6935 C.ar    1  UNL1        0.0031
     19 C         142.8795  140.6082  169.1949 C.ar    1  UNL1       -0.0001
     20 C         142.6129  139.4947  168.2259 C.ar    1  UNL1       -0.0013
     21 C         142.5391  139.7817  166.7555 C.ar    1  UNL1        0.0121
     22 C         142.2725  138.6682  165.7864 C.3     1  UNL1        0.0342
@<TRIPOS>BOND
     1    12    13    1
     2    13    11    1
     3     1    11    1
     4     1     2    1
     5     2     3    1
     6     3     4    1
     7     4     5   ar
     8     5     6   ar
     9     6     7   ar
    10     7     8   ar
    11     8     9   ar
    12     9    10    1
    13    10    15    1
    14    15    16    1
    15    16    17   ar
    16    17    18   ar
    17    18    19   ar
    18    19    20   ar
    19    20    21   ar
    20    21    22    1
    21    10     1    1
    22    21    16   ar
    23     9     4   ar
    24    13    14    1
@<TRIPOS>MOLECULE
*****
 22 24 0 0 0
SMALL
GASTEIGER

@<TRIPOS>ATOM
      1 C         141.8667  139.4829  165.5585 C.3     1  UNL1        0.1038
      2 C         143.1065  139.1432  166.3313 C.3     1  UNL1        0.2106
      3 O         143.0951  139.1995  167.8302 O.3     1  UNL1       -0.4755
      4 C         141.8437  139.5956  168.5563 C.ar    1  UNL1        0.1379
      5 C         141.8322  139.6519  170.0552 C.ar    1  UNL1        0.0367
      6 C         140.5808  140.0479  170.7812 C.ar    1  UNL1        0.0031
      7 C         139.3410  140.3877  170.0084 C.ar    1  UNL1       -0.0000
      8 C         139.3524  140.3314  168.5095 C.ar    1  UNL1        0.0022
      9 C         140.6038  139.9353  167.7835 C.ar    1  UNL1        0.0513
     10 C         140.6153  139.8790  166.2845 C.3     1  UNL1        0.1959
     11 C         141.8782  139.4266  164.0595 C.3     1  UNL1        0.0763
     12 C         140.9844  138.2075  161.9465 C.3     1  UNL1        0.0859
     13 N         140.7574  138.7517  163.3258 N.3     1  UNL1       -0.2961
     14 H         140.4555  137.9685  163.9053 H       1  UNL1        0.1233
     15 O         139.3754  140.2188  165.5117 O.3     1  UNL1       -0.4748
     16 C         139.1074  141.6391  165.1104 C.ar    1  UNL1        0.1348
     17 C         139.7728  142.7645  165.8457 C.ar    1  UNL1        0.0366
     18 C         139.5048  144.1847  165.4444 C.ar    1  UNL1        0.0031
     19 C         138.5713  144.4795  164.3079 C.ar    1  UNL1       -0.0001
     20 C         137.9059  143.3541  163.5726 C.ar    1  UNL1       -0.0013
     21 C         138.1739  141.9339  163.9739 C.ar    1  UNL1        0.0121
     22 C         137.5085  140.8084  163.2386 C.3     1  UNL1        0.0342
@<TRIPOS>BOND
     1    12    13    1
     2    13    11    1
     3     1    11    1
     4     1     2    1
     5     2     3    1
     6     3     4    1
     7     4     5   ar
     8     5     6   ar
     9     6     7   ar
    10     7     8   ar
    11     8     9   ar
    12     9    10    1
    13    10    15    1
    14    15    16    1
    15    16    17   ar
    16    17    18   ar
    17    18    19   ar
    18    19    20   ar
    19    20    21   ar
    20    21    22    1
    21    10     1    1
    22    21    16   ar
    23     9     4   ar
    24    13    14    1
@<TRIPOS>MOLECULE
*****
 22 24 0 0 0
SMALL
GASTEIGER

@<TRIPOS>ATOM
      1 C         139.1095  139.3519  164.4325 C.3     1  UNL1        0.1038
      2 C         138.0036  139.5059  163.4309 C.3     1  UNL1        0.2106
      3 O         137.5800  140.8743  162.9859 O.3     1  UNL1       -0.4755
      4 C         138.2622  142.0887  163.5425 C.ar    1  UNL1        0.1379
      5 C         137.8386  143.4570  163.0975 C.ar    1  UNL1        0.0367
      6 C         138.5208  144.6714  163.6541 C.ar    1  UNL1        0.0031
      7 C         139.6267  144.5174  164.6557 C.ar    1  UNL1       -0.0000
      8 C         140.0504  143.1490  165.1007 C.ar    1  UNL1        0.0022
      9 C         139.3681  141.9347  164.5441 C.ar    1  UNL1        0.0513
     10 C         139.7918  140.5662  164.9891 C.3     1  UNL1        0.1959
     11 C         139.5331  137.9834  164.8775 C.3     1  UNL1        0.0763
     12 C         141.5903  137.6356  163.3293 C.3     1  UNL1        0.0859
     13 N         140.9520  137.5374  164.6831 N.3     1  UNL1       -0.2961
     14 H         141.5248  138.0916  165.3196 H       1  UNL1        0.1233
     15 O         140.8977  140.4122  165.9908 O.3     1  UNL1       -0.4748
     16 C         140.6381  140.6858  167.4426 C.ar    1  UNL1        0.1348
     17 C         139.4452  140.0777  168.1188 C.ar    1  UNL1        0.0366
     18 C         139.1856  140.3513  169.5706 C.ar    1  UNL1        0.0031
     19 C         140.1190  141.2330  170.3462 C.ar    1  UNL1       -0.0001
     20 C         141.3118  141.8410  169.6700 C.ar    1  UNL1       -0.0013
     21 C         141.5714  141.5675  168.2182 C.ar    1  UNL1        0.0121
     22 C         142.7643  142.1756  167.5420 C.3     1  UNL1        0.0342
@<TRIPOS>BOND
     1    12    13    1
     2    13    11    1
     3     1    11    1
     4     1     2    1
     5     2     3    1
     6     3     4    1
     7     4     5   ar
     8     5     6   ar
     9     6     7   ar
    10     7     8   ar
    11     8     9   ar
    12     9    10    1
    13    10    15    1
    14    15    16    1
    15    16    17   ar
    16    17    18   ar
    17    18    19   ar
    18    19    20   ar
    19    20    21   ar
    20    21    22    1
    21    10     1    1
    22    21    16   ar
    23     9     4   ar
    24    13    14    1
