@<TRIPOS>MOLECULE
*****
 34 38 0 0 0
SMALL
GASTEIGER

@<TRIPOS>ATOM
      1 C         139.5387  142.4992  158.4651 C.3     1  UNL1        0.1531
      2 C         138.6846  142.3601  159.6903 C.3     1  UNL1        0.1067
      3 N         138.9394  141.2439  160.6593 N.3     1  UNL1       -0.2665
      4 C         138.0854  141.1048  161.8846 C.3     1  UNL1        0.0940
      5 C         138.3402  139.9886  162.8537 C.3     1  UNL1        0.1107
      6 N         139.4491  139.0114  162.5975 N.am    1  UNL1       -0.2763
      7 C         139.7039  137.8952  163.5666 C.2     1  UNL1        0.2318
      8 O         140.8127  136.9180  163.3104 O.2     1  UNL1       -0.2744
      9 C         140.3031  139.1505  161.3723 C.3     1  UNL1        0.1119
     10 C         140.0483  140.2668  160.4032 C.3     1  UNL1        0.1075
     11 C         140.9024  140.4059  159.1779 C.3     1  UNL1        0.1601
     12 O         140.6475  141.5221  158.2089 O.3     1  UNL1       -0.3489
     13 C         137.6701  142.0831  156.1552 C.3     1  UNL1        0.0316
     14 C         138.3496  143.4074  156.3411 C.ar    1  UNL1       -0.0117
     15 C         139.2839  143.6155  157.4960 C.ar    1  UNL1        0.0027
     16 C         139.9634  144.9398  157.6818 C.ar    1  UNL1        0.0001
     17 C         139.7086  146.0560  156.7128 C.ar    1  UNL1        0.0301
     18 C         138.7743  145.8479  155.5578 C.ar    1  UNL1        0.1493
     19 F         138.5195  146.9642  154.5888 F       1  UNL1       -0.2035
     20 C         138.0948  144.5237  155.3719 C.ar    1  UNL1        0.0916
     21 C         137.1605  144.3156  154.2171 C.1     1  UNL1        0.1024
     22 N         136.2263  144.1075  153.0622 N.1     1  UNL1       -0.1908
     23 C         138.8498  137.7561  164.7918 C.3     1  UNL1        0.1325
     24 C         139.1721  138.5477  166.0245 C.ar    1  UNL1        0.0874
     25 C         138.1393  138.7157  167.0993 C.ar    1  UNL1        0.1157
     26 N         138.4616  139.5073  168.3320 N.ar    1  UNL1       -0.2223
     27 C         139.8166  140.1310  168.4898 C.ar    1  UNL1        0.1865
     28 C         140.8493  139.9631  167.4150 C.ar    1  UNL1        0.1373
     29 N         140.5271  139.1715  166.1823 N.ar    1  UNL1       -0.2429
     30 N         140.1389  140.9227  169.7224 N.ar    1  UNL1       -0.1693
     31 C         141.3820  140.7952  170.5522 C.ar    1  UNL1        0.2273
     32 N         141.2860  141.7746  171.6844 N.ar    1  UNL1       -0.1044
     33 N         139.9836  142.5073  171.5543 N.ar    1  UNL1       -0.0222
     34 N         139.2746  141.9808  170.3418 N.ar    1  UNL1       -0.0371
@<TRIPOS>BOND
     1    13    14    1
     2    14    15   ar
     3     1    15    1
     4     1     2    1
     5     2     3    1
     6     3     4    1
     7     4     5    1
     8     5     6    1
     9     6     7   am
    10     7     8    2
    11     7    23    1
    12    23    24    1
    13    24    25   ar
    14    25    26   ar
    15    26    27   ar
    16    27    30    1
    17    30    31   ar
    18    31    32   ar
    19    32    33   ar
    20    33    34   ar
    21    27    28   ar
    22    28    29   ar
    23     6     9    1
    24    10     9    1
    25    10    11    1
    26    11    12    1
    27    15    16   ar
    28    16    17   ar
    29    17    18   ar
    30    18    19    1
    31    18    20   ar
    32    20    21    1
    33    21    22    3
    34    20    14   ar
    35    12     1    1
    36    10     3    1
    37    29    24   ar
    38    34    30   ar
@<TRIPOS>MOLECULE
*****
 34 38 0 0 0
SMALL
GASTEIGER

@<TRIPOS>ATOM
      1 C         138.4597  141.0428  157.6310 C.3     1  UNL1        0.1531
      2 C         137.6671  140.9167  158.8983 C.3     1  UNL1        0.1067
      3 N         138.1920  140.0862  160.0316 N.3     1  UNL1       -0.2665
      4 C         137.3995  139.9601  161.2990 C.3     1  UNL1        0.0940
      5 C         137.9244  139.1295  162.4323 C.3     1  UNL1        0.1107
      6 N         139.2418  138.4250  162.2985 N.am    1  UNL1       -0.2763
      7 C         139.7667  137.5944  163.4319 C.2     1  UNL1        0.2318
      8 O         141.0842  136.8899  163.2981 O.2     1  UNL1       -0.2744
      9 C         140.0344  138.5511  161.0312 C.3     1  UNL1        0.1119
     10 C         139.5095  139.3817  159.8978 C.3     1  UNL1        0.1075
     11 C         140.3020  139.5077  158.6305 C.3     1  UNL1        0.1601
     12 O         139.7771  140.3383  157.4972 O.3     1  UNL1       -0.3489
     13 C         139.2878  143.9141  157.3663 C.3     1  UNL1        0.0316
     14 C         138.3488  143.3090  156.3652 C.ar    1  UNL1       -0.0117
     15 C         137.9348  141.8734  156.4976 C.ar    1  UNL1        0.0027
     16 C         136.9958  141.2683  155.4965 C.ar    1  UNL1        0.0001
     17 C         136.4709  142.0988  154.3631 C.ar    1  UNL1        0.0301
     18 C         136.8850  143.5345  154.2307 C.ar    1  UNL1        0.1493
     19 F         136.3601  144.3650  153.0973 F       1  UNL1       -0.2035
     20 C         137.8239  144.1396  155.2318 C.ar    1  UNL1        0.0916
     21 C         138.2380  145.5752  155.0995 C.1     1  UNL1        0.1024
     22 N         138.6521  147.0108  154.9671 N.1     1  UNL1       -0.1908
     23 C         138.9742  137.4684  164.6992 C.3     1  UNL1        0.1325
     24 C         139.2425  138.3960  165.8469 C.ar    1  UNL1        0.0874
     25 C         138.2107  138.5793  166.9202 C.ar    1  UNL1        0.1157
     26 N         138.4791  139.5069  168.0680 N.ar    1  UNL1       -0.2223
     27 C         139.7792  140.2513  168.1426 C.ar    1  UNL1        0.1865
     28 C         140.8109  140.0681  167.0693 C.ar    1  UNL1        0.1373
     29 N         140.5426  139.1404  165.9215 N.ar    1  UNL1       -0.2429
     30 N         140.0475  141.1790  169.2903 N.ar    1  UNL1       -0.1693
     31 C         140.3853  142.6367  169.1855 C.ar    1  UNL1        0.2273
     32 N         140.5717  143.1705  170.5749 N.ar    1  UNL1       -0.1044
     33 N         140.3492  142.0425  171.5385 N.ar    1  UNL1       -0.0222
     34 N         140.0252  140.8118  170.7446 N.ar    1  UNL1       -0.0371
@<TRIPOS>BOND
     1    13    14    1
     2    14    15   ar
     3     1    15    1
     4     1     2    1
     5     2     3    1
     6     3     4    1
     7     4     5    1
     8     5     6    1
     9     6     7   am
    10     7     8    2
    11     7    23    1
    12    23    24    1
    13    24    25   ar
    14    25    26   ar
    15    26    27   ar
    16    27    30    1
    17    30    31   ar
    18    31    32   ar
    19    32    33   ar
    20    33    34   ar
    21    27    28   ar
    22    28    29   ar
    23     6     9    1
    24    10     9    1
    25    10    11    1
    26    11    12    1
    27    15    16   ar
    28    16    17   ar
    29    17    18   ar
    30    18    19    1
    31    18    20   ar
    32    20    21    1
    33    21    22    3
    34    20    14   ar
    35    12     1    1
    36    10     3    1
    37    29    24   ar
    38    34    30   ar
@<TRIPOS>MOLECULE
*****
 34 38 0 0 0
SMALL
GASTEIGER

@<TRIPOS>ATOM
      1 C         142.8276  140.2199  164.9932 C.3     1  UNL1        0.1531
      2 C         141.8462  139.5751  164.0600 C.3     1  UNL1        0.1067
      3 N         142.1473  139.4961  162.5926 N.3     1  UNL1       -0.2665
      4 C         141.1659  138.8513  161.6593 C.3     1  UNL1        0.0940
      5 C         141.4669  138.7723  160.1919 C.3     1  UNL1        0.1107
      6 N         142.7493  139.3381  159.6579 N.am    1  UNL1       -0.2763
      7 C         143.0504  139.2591  158.1905 C.2     1  UNL1        0.2318
      8 O         144.3328  139.8249  157.6564 O.2     1  UNL1       -0.2744
      9 C         143.7307  139.9829  160.5912 C.3     1  UNL1        0.1119
     10 C         143.4297  140.0620  162.0586 C.3     1  UNL1        0.1075
     11 C         144.4111  140.7067  162.9919 C.3     1  UNL1        0.1601
     12 O         144.1101  140.7857  164.4592 O.3     1  UNL1       -0.3489
     13 C         141.4550  142.6403  166.1148 C.3     1  UNL1        0.0316
     14 C         141.8403  141.5091  167.0214 C.ar    1  UNL1       -0.0117
     15 C         142.5266  140.2989  166.4606 C.ar    1  UNL1        0.0027
     16 C         142.9119  139.1677  167.3672 C.ar    1  UNL1        0.0001
     17 C         142.6110  139.2467  168.8346 C.ar    1  UNL1        0.0301
     18 C         141.9246  140.4569  169.3954 C.ar    1  UNL1        0.1493
     19 F         141.6237  140.5359  170.8627 F       1  UNL1       -0.2035
     20 C         141.5393  141.5881  168.4888 C.ar    1  UNL1        0.0916
     21 C         140.8530  142.7983  169.0495 C.1     1  UNL1        0.1024
     22 N         140.1667  144.0084  169.6102 N.1     1  UNL1       -0.1908
     23 C         142.0690  138.6143  157.2572 C.3     1  UNL1        0.1325
     24 C         142.2022  137.1596  156.9168 C.ar    1  UNL1        0.0874
     25 C         141.3025  136.5451  155.8858 C.ar    1  UNL1        0.1157
     26 N         141.4357  135.0903  155.5455 N.ar    1  UNL1       -0.2223
     27 C         142.4687  134.2500  156.2361 C.ar    1  UNL1        0.1865
     28 C         143.3684  134.8645  157.2670 C.ar    1  UNL1        0.1373
     29 N         143.2351  136.3193  157.6074 N.ar    1  UNL1       -0.2429
     30 N         142.6019  132.7953  155.8957 N.ar    1  UNL1       -0.1693
     31 C         142.7830  132.2245  154.5204 C.ar    1  UNL1        0.2273
     32 N         142.8704  130.7322  154.6456 N.ar    1  UNL1       -0.1044
     33 N         142.7434  130.3807  156.0983 N.ar    1  UNL1       -0.0222
     34 N         142.5775  131.6557  156.8709 N.ar    1  UNL1       -0.0371
@<TRIPOS>BOND
     1    13    14    1
     2    14    15   ar
     3     1    15    1
     4     1     2    1
     5     2     3    1
     6     3     4    1
     7     4     5    1
     8     5     6    1
     9     6     7   am
    10     7     8    2
    11     7    23    1
    12    23    24    1
    13    24    25   ar
    14    25    26   ar
    15    26    27   ar
    16    27    30    1
    17    30    31   ar
    18    31    32   ar
    19    32    33   ar
    20    33    34   ar
    21    27    28   ar
    22    28    29   ar
    23     6     9    1
    24    10     9    1
    25    10    11    1
    26    11    12    1
    27    15    16   ar
    28    16    17   ar
    29    17    18   ar
    30    18    19    1
    31    18    20   ar
    32    20    21    1
    33    21    22    3
    34    20    14   ar
    35    12     1    1
    36    10     3    1
    37    29    24   ar
    38    34    30   ar
@<TRIPOS>MOLECULE
*****
 34 38 0 0 0
SMALL
GASTEIGER

@<TRIPOS>ATOM
      1 C         142.7740  140.4581  164.4382 C.3     1  UNL1        0.1531
      2 C         141.8707  139.6370  163.5666 C.3     1  UNL1        0.1067
      3 N         142.1977  139.4482  162.1149 N.3     1  UNL1       -0.2665
      4 C         141.2943  138.6271  161.2433 C.3     1  UNL1        0.0940
      5 C         141.6213  138.4382  159.7916 C.3     1  UNL1        0.1107
      6 N         142.8517  139.0705  159.2115 N.am    1  UNL1       -0.2763
      7 C         143.1787  138.8816  157.7598 C.2     1  UNL1        0.2318
      8 O         144.4090  139.5139  157.1797 O.2     1  UNL1       -0.2744
      9 C         143.7550  139.8916  160.0831 C.3     1  UNL1        0.1119
     10 C         143.4280  140.0805  161.5349 C.3     1  UNL1        0.1075
     11 C         144.3314  140.9016  162.4065 C.3     1  UNL1        0.1601
     12 O         144.0044  141.0904  163.8581 O.3     1  UNL1       -0.3489
     13 C         143.5538  138.3609  166.4367 C.3     1  UNL1        0.0316
     14 C         142.8369  139.5984  166.8891 C.ar    1  UNL1       -0.0117
     15 C         142.4470  140.6470  165.8899 C.ar    1  UNL1        0.0027
     16 C         141.7302  141.8845  166.3424 C.ar    1  UNL1        0.0001
     17 C         141.4032  142.0734  167.7940 C.ar    1  UNL1        0.0301
     18 C         141.7931  141.0248  168.7933 C.ar    1  UNL1        0.1493
     19 F         141.4661  141.2137  170.2450 F       1  UNL1       -0.2035
     20 C         142.5099  139.7873  168.3409 C.ar    1  UNL1        0.0916
     21 C         142.8998  138.7387  169.3400 C.1     1  UNL1        0.1024
     22 N         143.2897  137.6902  170.3392 N.1     1  UNL1       -0.1908
     23 C         142.2753  138.0605  156.8882 C.3     1  UNL1        0.1325
     24 C         142.6714  136.6669  156.4999 C.ar    1  UNL1        0.0874
     25 C         142.6437  136.2534  155.0583 C.ar    1  UNL1        0.1157
     26 N         143.0398  134.8597  154.6700 N.ar    1  UNL1       -0.2223
     27 C         143.4637  133.8795  155.7233 C.ar    1  UNL1        0.1865
     28 C         143.4915  134.2929  157.1649 C.ar    1  UNL1        0.1373
     29 N         143.0953  135.6866  157.5533 N.ar    1  UNL1       -0.2429
     30 N         143.8598  132.4859  155.3350 N.ar    1  UNL1       -0.1693
     31 C         144.7975  131.5926  156.0918 C.ar    1  UNL1        0.2273
     32 N         144.9050  130.2953  155.3463 N.ar    1  UNL1       -0.1044
     33 N         144.0337  130.3870  154.1287 N.ar    1  UNL1       -0.0222
     34 N         143.3878  131.7407  154.1217 N.ar    1  UNL1       -0.0371
@<TRIPOS>BOND
     1    13    14    1
     2    14    15   ar
     3     1    15    1
     4     1     2    1
     5     2     3    1
     6     3     4    1
     7     4     5    1
     8     5     6    1
     9     6     7   am
    10     7     8    2
    11     7    23    1
    12    23    24    1
    13    24    25   ar
    14    25    26   ar
    15    26    27   ar
    16    27    30    1
    17    30    31   ar
    18    31    32   ar
    19    32    33   ar
    20    33    34   ar
    21    27    28   ar
    22    28    29   ar
    23     6     9    1
    24    10     9    1
    25    10    11    1
    26    11    12    1
    27    15    16   ar
    28    16    17   ar
    29    17    18   ar
    30    18    19    1
    31    18    20   ar
    32    20    21    1
    33    21    22    3
    34    20    14   ar
    35    12     1    1
    36    10     3    1
    37    29    24   ar
    38    34    30   ar
@<TRIPOS>MOLECULE
*****
 34 38 0 0 0
SMALL
GASTEIGER

@<TRIPOS>ATOM
      1 C         142.3248  142.4124  165.8326 C.3     1  UNL1        0.1531
      2 C         143.2857  141.6572  164.9630 C.3     1  UNL1        0.1067
      3 N         143.4072  141.9982  163.5074 N.3     1  UNL1       -0.2665
      4 C         144.3682  141.2431  162.6378 C.3     1  UNL1        0.0940
      5 C         144.4896  141.5841  161.1821 C.3     1  UNL1        0.1107
      6 N         143.6501  142.6803  160.5961 N.am    1  UNL1       -0.2763
      7 C         143.7715  143.0214  159.1404 C.2     1  UNL1        0.2318
      8 O         142.9320  144.1176  158.5543 O.2     1  UNL1       -0.2744
      9 C         142.6891  143.4355  161.4657 C.3     1  UNL1        0.1119
     10 C         142.5676  143.0945  162.9214 C.3     1  UNL1        0.1075
     11 C         141.6067  143.8496  163.7909 C.3     1  UNL1        0.1601
     12 O         141.4852  143.5086  165.2466 O.3     1  UNL1       -0.3489
     13 C         139.8033  141.1658  166.8759 C.3     1  UNL1        0.0316
     14 C         140.9426  141.4481  167.8100 C.ar    1  UNL1       -0.0117
     15 C         142.2033  142.0713  167.2883 C.ar    1  UNL1        0.0027
     16 C         143.3426  142.3536  168.2223 C.ar    1  UNL1        0.0001
     17 C         143.2212  142.0126  169.6780 C.ar    1  UNL1        0.0301
     18 C         141.9604  141.3893  170.1997 C.ar    1  UNL1        0.1493
     19 F         141.8390  141.0483  171.6553 F       1  UNL1       -0.2035
     20 C         140.8211  141.1070  169.2657 C.ar    1  UNL1        0.0916
     21 C         139.5604  140.4838  169.7873 C.1     1  UNL1        0.1024
     22 N         138.2998  139.8605  170.3089 N.1     1  UNL1       -0.1908
     23 C         144.7325  142.2662  158.2708 C.3     1  UNL1        0.1325
     24 C         144.3108  140.9768  157.6308 C.ar    1  UNL1        0.0874
     25 C         145.0802  140.4316  156.4643 C.ar    1  UNL1        0.1157
     26 N         144.6585  139.1422  155.8244 N.ar    1  UNL1       -0.2223
     27 C         143.4673  138.3980  156.3509 C.ar    1  UNL1        0.1865
     28 C         142.6978  138.9432  157.5173 C.ar    1  UNL1        0.1373
     29 N         143.1195  140.2326  158.1573 N.ar    1  UNL1       -0.2429
     30 N         143.0455  137.1086  155.7109 N.ar    1  UNL1       -0.1693
     31 C         142.8371  135.8012  156.4160 C.ar    1  UNL1        0.2273
     32 N         142.4208  134.7847  155.3943 N.ar    1  UNL1       -0.1044
     33 N         142.3721  135.4641  154.0577 N.ar    1  UNL1       -0.0222
     34 N         142.7581  136.9003  154.2534 N.ar    1  UNL1       -0.0371
@<TRIPOS>BOND
     1    13    14    1
     2    14    15   ar
     3     1    15    1
     4     1     2    1
     5     2     3    1
     6     3     4    1
     7     4     5    1
     8     5     6    1
     9     6     7   am
    10     7     8    2
    11     7    23    1
    12    23    24    1
    13    24    25   ar
    14    25    26   ar
    15    26    27   ar
    16    27    30    1
    17    30    31   ar
    18    31    32   ar
    19    32    33   ar
    20    33    34   ar
    21    27    28   ar
    22    28    29   ar
    23     6     9    1
    24    10     9    1
    25    10    11    1
    26    11    12    1
    27    15    16   ar
    28    16    17   ar
    29    17    18   ar
    30    18    19    1
    31    18    20   ar
    32    20    21    1
    33    21    22    3
    34    20    14   ar
    35    12     1    1
    36    10     3    1
    37    29    24   ar
    38    34    30   ar
@<TRIPOS>MOLECULE
*****
 34 38 0 0 0
SMALL
GASTEIGER

@<TRIPOS>ATOM
      1 C         139.7466  140.7807  162.8818 C.3     1  UNL1        0.1531
      2 C         140.9685  140.2701  162.1775 C.3     1  UNL1        0.1067
      3 N         140.8374  139.5849  160.8496 N.3     1  UNL1       -0.2665
      4 C         142.0594  139.0742  160.1453 C.3     1  UNL1        0.0940
      5 C         141.9283  138.3890  158.8174 C.3     1  UNL1        0.1107
      6 N         140.5753  138.2145  158.1938 N.am    1  UNL1       -0.2763
      7 C         140.4442  137.5292  156.8659 C.2     1  UNL1        0.2318
      8 O         139.0912  137.3547  156.2423 O.2     1  UNL1       -0.2744
      9 C         139.3533  138.7251  158.8981 C.3     1  UNL1        0.1119
     10 C         139.4844  139.4103  160.2261 C.3     1  UNL1        0.1075
     11 C         138.2624  139.9210  160.9303 C.3     1  UNL1        0.1601
     12 O         138.3935  140.6062  162.2582 O.3     1  UNL1       -0.3489
     13 C         139.5388  139.1907  165.4173 C.3     1  UNL1        0.0316
     14 C         139.7737  140.6710  165.4774 C.ar    1  UNL1       -0.0117
     15 C         139.8776  141.4660  164.2097 C.ar    1  UNL1        0.0027
     16 C         140.1125  142.9463  164.2699 C.ar    1  UNL1        0.0001
     17 C         140.2436  143.6315  165.5977 C.ar    1  UNL1        0.0301
     18 C         140.1397  142.8365  166.8655 C.ar    1  UNL1        0.1493
     19 F         140.2708  143.5217  168.1933 F       1  UNL1       -0.2035
     20 C         139.9048  141.3562  166.8054 C.ar    1  UNL1        0.0916
     21 C         139.8009  140.5612  168.0731 C.1     1  UNL1        0.1024
     22 N         139.6970  139.7662  169.3408 N.1     1  UNL1       -0.1908
     23 C         141.6662  137.0186  156.1616 C.3     1  UNL1        0.1325
     24 C         142.0902  135.5903  156.3357 C.ar    1  UNL1        0.0874
     25 C         141.4715  134.5160  155.4912 C.ar    1  UNL1        0.1157
     26 N         141.8955  133.0878  155.6652 N.ar    1  UNL1       -0.2223
     27 C         142.9383  132.7338  156.6837 C.ar    1  UNL1        0.1865
     28 C         143.5570  133.8081  157.5282 C.ar    1  UNL1        0.1373
     29 N         143.1330  135.2364  157.3542 N.ar    1  UNL1       -0.2429
     30 N         143.3624  131.3056  156.8578 N.ar    1  UNL1       -0.1693
     31 C         142.7863  130.1211  156.1400 C.ar    1  UNL1        0.2273
     32 N         143.5049  128.8945  156.6188 N.ar    1  UNL1       -0.1044
     33 N         144.5251  129.3210  157.6325 N.ar    1  UNL1       -0.0222
     34 N         144.4370  130.8111  157.7802 N.ar    1  UNL1       -0.0371
@<TRIPOS>BOND
     1    13    14    1
     2    14    15   ar
     3     1    15    1
     4     1     2    1
     5     2     3    1
     6     3     4    1
     7     4     5    1
     8     5     6    1
     9     6     7   am
    10     7     8    2
    11     7    23    1
    12    23    24    1
    13    24    25   ar
    14    25    26   ar
    15    26    27   ar
    16    27    30    1
    17    30    31   ar
    18    31    32   ar
    19    32    33   ar
    20    33    34   ar
    21    27    28   ar
    22    28    29   ar
    23     6     9    1
    24    10     9    1
    25    10    11    1
    26    11    12    1
    27    15    16   ar
    28    16    17   ar
    29    17    18   ar
    30    18    19    1
    31    18    20   ar
    32    20    21    1
    33    21    22    3
    34    20    14   ar
    35    12     1    1
    36    10     3    1
    37    29    24   ar
    38    34    30   ar
@<TRIPOS>MOLECULE
*****
 34 38 0 0 0
SMALL
GASTEIGER

@<TRIPOS>ATOM
      1 C         141.5895  140.9957  165.6291 C.3     1  UNL1        0.1531
      2 C         140.9520  141.8688  164.5893 C.3     1  UNL1        0.1067
      3 N         141.1852  141.5936  163.1334 N.3     1  UNL1       -0.2665
      4 C         140.5477  142.4668  162.0935 C.3     1  UNL1        0.0940
      5 C         140.7809  142.1916  160.6376 C.3     1  UNL1        0.1107
      6 N         141.6515  141.0432  160.2214 N.am    1  UNL1       -0.2763
      7 C         141.8847  140.7680  158.7653 C.2     1  UNL1        0.2318
      8 O         142.7553  139.6196  158.3492 O.2     1  UNL1       -0.2744
      9 C         142.2890  140.1700  161.2611 C.3     1  UNL1        0.1119
     10 C         142.0558  140.4452  162.7172 C.3     1  UNL1        0.1075
     11 C         142.6933  139.5720  163.7570 C.3     1  UNL1        0.1601
     12 O         142.4601  139.8473  165.2129 O.3     1  UNL1       -0.3489
     13 C         139.2643  139.7310  167.0412 C.3     1  UNL1        0.0316
     14 C         140.1938  140.6385  167.7911 C.ar    1  UNL1       -0.0117
     15 C         141.3563  141.2709  167.0851 C.ar    1  UNL1        0.0027
     16 C         142.2858  142.1784  167.8351 C.ar    1  UNL1        0.0001
     17 C         142.0527  142.4536  169.2910 C.ar    1  UNL1        0.0301
     18 C         140.8901  141.8213  169.9971 C.ar    1  UNL1        0.1493
     19 F         140.6570  142.0965  171.4531 F       1  UNL1       -0.2035
     20 C         139.9606  140.9137  169.2472 C.ar    1  UNL1        0.0916
     21 C         138.7980  140.2814  169.9532 C.1     1  UNL1        0.1024
     22 N         137.6354  139.6491  170.6592 N.1     1  UNL1       -0.1908
     23 C         141.2472  141.6411  157.7256 C.3     1  UNL1        0.1325
     24 C         139.8061  141.4424  157.3603 C.ar    1  UNL1        0.0874
     25 C         139.3203  140.0889  156.9333 C.ar    1  UNL1        0.1157
     26 N         137.8792  139.8901  156.5680 N.ar    1  UNL1       -0.2223
     27 C         136.9236  141.0447  156.6297 C.ar    1  UNL1        0.1865
     28 C         137.4093  142.3981  157.0567 C.ar    1  UNL1        0.1373
     29 N         138.8505  142.5970  157.4220 N.ar    1  UNL1       -0.2429
     30 N         135.4825  140.8459  156.2645 N.ar    1  UNL1       -0.1693
     31 C         134.7585  141.5169  155.1350 C.ar    1  UNL1        0.2273
     32 N         133.3407  141.0269  155.1370 N.ar    1  UNL1       -0.1044
     33 N         133.1885  140.0530  156.2678 N.ar    1  UNL1       -0.0222
     34 N         134.5121  139.9412  156.9645 N.ar    1  UNL1       -0.0371
@<TRIPOS>BOND
     1    13    14    1
     2    14    15   ar
     3     1    15    1
     4     1     2    1
     5     2     3    1
     6     3     4    1
     7     4     5    1
     8     5     6    1
     9     6     7   am
    10     7     8    2
    11     7    23    1
    12    23    24    1
    13    24    25   ar
    14    25    26   ar
    15    26    27   ar
    16    27    30    1
    17    30    31   ar
    18    31    32   ar
    19    32    33   ar
    20    33    34   ar
    21    27    28   ar
    22    28    29   ar
    23     6     9    1
    24    10     9    1
    25    10    11    1
    26    11    12    1
    27    15    16   ar
    28    16    17   ar
    29    17    18   ar
    30    18    19    1
    31    18    20   ar
    32    20    21    1
    33    21    22    3
    34    20    14   ar
    35    12     1    1
    36    10     3    1
    37    29    24   ar
    38    34    30   ar
@<TRIPOS>MOLECULE
*****
 34 38 0 0 0
SMALL
GASTEIGER

@<TRIPOS>ATOM
      1 C         142.2746  140.0843  157.5309 C.3     1  UNL1        0.1531
      2 C         142.4017  139.1631  158.7078 C.3     1  UNL1        0.1067
      3 N         141.4395  139.2727  159.8532 N.3     1  UNL1       -0.2665
      4 C         141.5665  138.3515  161.0303 C.3     1  UNL1        0.0940
      5 C         140.6043  138.4610  162.1757 C.3     1  UNL1        0.1107
      6 N         139.5150  139.4918  162.1442 N.am    1  UNL1       -0.2763
      7 C         138.5528  139.6013  163.2898 C.2     1  UNL1        0.2318
      8 O         137.4635  140.6320  163.2583 O.2     1  UNL1       -0.2744
      9 C         139.3879  140.4129  160.9673 C.3     1  UNL1        0.1119
     10 C         140.3502  140.3034  159.8218 C.3     1  UNL1        0.1075
     11 C         140.2231  141.2246  158.6448 C.3     1  UNL1        0.1601
     12 O         141.1853  141.1151  157.4994 O.3     1  UNL1       -0.3489
     13 C         144.8889  141.5530  157.6222 C.3     1  UNL1        0.0316
     14 C         144.5439  140.7091  156.4310 C.ar    1  UNL1       -0.0117
     15 C         143.2368  139.9748  156.3853 C.ar    1  UNL1        0.0027
     16 C         142.8918  139.1309  155.1941 C.ar    1  UNL1        0.0001
     17 C         143.8540  139.0214  154.0486 C.ar    1  UNL1        0.0301
     18 C         145.1612  139.7557  154.0943 C.ar    1  UNL1        0.1493
     19 F         146.1233  139.6462  152.9488 F       1  UNL1       -0.2035
     20 C         145.5062  140.5996  155.2854 C.ar    1  UNL1        0.0916
     21 C         146.8133  141.3339  155.3311 C.1     1  UNL1        0.1024
     22 N         148.1204  142.0682  155.3768 N.1     1  UNL1       -0.1908
     23 C         138.6799  138.6801  164.4667 C.3     1  UNL1        0.1325
     24 C         139.0932  139.2227  165.8026 C.ar    1  UNL1        0.0874
     25 C         138.2369  138.9771  167.0095 C.ar    1  UNL1        0.1157
     26 N         138.6502  139.5198  168.3454 N.ar    1  UNL1       -0.2223
     27 C         139.9198  140.3080  168.4745 C.ar    1  UNL1        0.1865
     28 C         140.7761  140.5536  167.2677 C.ar    1  UNL1        0.1373
     29 N         140.3629  140.0110  165.9317 N.ar    1  UNL1       -0.2429
     30 N         140.3331  140.8507  169.8104 N.ar    1  UNL1       -0.1693
     31 C         141.5487  140.4440  170.5895 C.ar    1  UNL1        0.2273
     32 N         141.5702  141.2373  171.8625 N.ar    1  UNL1       -0.1044
     33 N         140.3680  142.1343  171.8700 N.ar    1  UNL1       -0.0222
     34 N         139.6034  141.8954  170.6018 N.ar    1  UNL1       -0.0371
@<TRIPOS>BOND
     1    13    14    1
     2    14    15   ar
     3     1    15    1
     4     1     2    1
     5     2     3    1
     6     3     4    1
     7     4     5    1
     8     5     6    1
     9     6     7   am
    10     7     8    2
    11     7    23    1
    12    23    24    1
    13    24    25   ar
    14    25    26   ar
    15    26    27   ar
    16    27    30    1
    17    30    31   ar
    18    31    32   ar
    19    32    33   ar
    20    33    34   ar
    21    27    28   ar
    22    28    29   ar
    23     6     9    1
    24    10     9    1
    25    10    11    1
    26    11    12    1
    27    15    16   ar
    28    16    17   ar
    29    17    18   ar
    30    18    19    1
    31    18    20   ar
    32    20    21    1
    33    21    22    3
    34    20    14   ar
    35    12     1    1
    36    10     3    1
    37    29    24   ar
    38    34    30   ar
@<TRIPOS>MOLECULE
*****
 34 38 0 0 0
SMALL
GASTEIGER

@<TRIPOS>ATOM
      1 C         142.1833  137.6147  157.1456 C.3     1  UNL1        0.1531
      2 C         140.9563  137.7780  157.9928 C.3     1  UNL1        0.1067
      3 N         140.9761  138.7071  159.1702 N.3     1  UNL1       -0.2665
      4 C         139.7491  138.8704  160.0175 C.3     1  UNL1        0.0940
      5 C         139.7689  139.7996  161.1948 C.3     1  UNL1        0.1107
      6 N         141.0157  140.5655  161.5250 N.am    1  UNL1       -0.2763
      7 C         141.0354  141.4947  162.7024 C.2     1  UNL1        0.2318
      8 O         142.2822  142.2606  163.0325 O.2     1  UNL1       -0.2744
      9 C         142.2426  140.4022  160.6777 C.3     1  UNL1        0.1119
     10 C         142.2229  139.4730  159.5003 C.3     1  UNL1        0.1075
     11 C         143.4498  139.3097  158.6531 C.3     1  UNL1        0.1601
     12 O         143.4300  138.3806  157.4757 O.3     1  UNL1       -0.3489
     13 C         143.2783  134.8342  157.4104 C.3     1  UNL1        0.0316
     14 C         142.7110  135.2953  156.1006 C.ar    1  UNL1       -0.0117
     15 C         142.1635  136.6855  155.9681 C.ar    1  UNL1        0.0027
     16 C         141.5962  137.1466  154.6583 C.ar    1  UNL1        0.0001
     17 C         141.5765  136.2174  153.4809 C.ar    1  UNL1        0.0301
     18 C         142.1240  134.8272  153.6133 C.ar    1  UNL1        0.1493
     19 F         142.1042  133.8981  152.4359 F       1  UNL1       -0.2035
     20 C         142.6912  134.3661  154.9231 C.ar    1  UNL1        0.0916
     21 C         143.2387  132.9759  155.0556 C.1     1  UNL1        0.1024
     22 N         143.7862  131.5857  155.1880 N.1     1  UNL1       -0.1908
     23 C         139.8085  141.6580  163.5496 C.3     1  UNL1        0.1325
     24 C         139.9203  141.6278  165.0451 C.ar    1  UNL1        0.0874
     25 C         139.5681  140.3795  165.7986 C.ar    1  UNL1        0.1157
     26 N         139.6800  140.3493  167.2941 N.ar    1  UNL1       -0.2223
     27 C         140.1439  141.5675  168.0362 C.ar    1  UNL1        0.1865
     28 C         140.4961  142.8159  167.2828 C.ar    1  UNL1        0.1373
     29 N         140.3843  142.8460  165.7872 N.ar    1  UNL1       -0.2429
     30 N         140.2558  141.5374  169.5317 N.ar    1  UNL1       -0.1693
     31 C         140.4842  140.3177  170.3744 C.ar    1  UNL1        0.2273
     32 N         140.5284  140.7482  171.8107 N.ar    1  UNL1       -0.1044
     33 N         140.3273  142.2340  171.8556 N.ar    1  UNL1       -0.0222
     34 N         140.1588  142.7218  170.4472 N.ar    1  UNL1       -0.0371
@<TRIPOS>BOND
     1    13    14    1
     2    14    15   ar
     3     1    15    1
     4     1     2    1
     5     2     3    1
     6     3     4    1
     7     4     5    1
     8     5     6    1
     9     6     7   am
    10     7     8    2
    11     7    23    1
    12    23    24    1
    13    24    25   ar
    14    25    26   ar
    15    26    27   ar
    16    27    30    1
    17    30    31   ar
    18    31    32   ar
    19    32    33   ar
    20    33    34   ar
    21    27    28   ar
    22    28    29   ar
    23     6     9    1
    24    10     9    1
    25    10    11    1
    26    11    12    1
    27    15    16   ar
    28    16    17   ar
    29    17    18   ar
    30    18    19    1
    31    18    20   ar
    32    20    21    1
    33    21    22    3
    34    20    14   ar
    35    12     1    1
    36    10     3    1
    37    29    24   ar
    38    34    30   ar
