@<TRIPOS>MOLECULE
*****
 32 35 0 0 0
SMALL
GASTEIGER

@<TRIPOS>ATOM
      1 C         138.9274  140.6101  159.7316 C.2     1  UNL1        0.2654
      2 O         137.8437  139.8381  159.0392 O.2     1  UNL1       -0.2684
      3 N         140.1986  140.9351  159.0046 N.am    1  UNL1       -0.2996
      4 H         140.9099  141.4418  159.4592 H       1  UNL1        0.1498
      5 C         138.1521  142.3887  163.0933 C.ar    1  UNL1        0.0622
      6 C         138.1452  142.3612  161.5936 C.ar    1  UNL1        0.0402
      7 C         138.7400  141.0572  161.1511 C.ar    1  UNL1        0.1555
      8 N         139.1144  140.2788  162.3774 N.ar    1  UNL1       -0.1608
      9 N         138.7510  141.1018  163.5778 N.ar    1  UNL1       -0.2336
     10 C         138.9515  140.7069  165.0109 C.ar    1  UNL1        0.0824
     11 C         138.1570  139.5770  165.5958 C.ar    1  UNL1        0.0191
     12 C         138.3575  139.1822  167.0289 C.ar    1  UNL1        0.0015
     13 C         139.3526  139.9173  167.8773 C.ar    1  UNL1        0.0001
     14 C         140.1470  141.0472  167.2924 C.ar    1  UNL1        0.0015
     15 C         139.9465  141.4420  165.8593 C.ar    1  UNL1        0.0191
     16 C         137.6483  143.5069  163.9569 C.3     1  UNL1        0.0459
     17 C         139.7638  144.9866  163.6642 C.3     1  UNL1        0.0004
     18 C         138.6065  144.5255  164.4997 C.3     1  UNL1        0.0059
     19 C         138.4073  145.0829  165.8780 C.3     1  UNL1        0.0004
     20 C         140.3861  140.4881  157.5852 C.3     1  UNL1        0.0898
     21 C         140.9266  139.1192  157.2951 C.3     1  UNL1        0.0224
     22 C         140.8676  137.8369  156.5192 C.3     1  UNL1        0.0191
     23 C         141.0559  136.4751  155.9189 C.3     1  UNL1        0.0721
     24 N         142.2263  135.8274  156.5975 N.3     1  UNL1       -0.2727
     25 C         142.7614  136.7887  157.6171 C.3     1  UNL1        0.0721
     26 C         141.9217  138.0307  157.5687 C.3     1  UNL1        0.0191
     27 C         142.7668  134.4585  156.3075 C.3     1  UNL1        0.0721
     28 C         143.4281  133.6670  157.3966 C.3     1  UNL1        0.0173
     29 C         143.8912  132.2654  157.1297 C.3     1  UNL1        0.0013
     30 C         142.6170  131.9855  156.3893 C.3     1  UNL1        0.0000
     31 C         145.1653  132.5453  157.8700 C.3     1  UNL1        0.0000
     32 C         144.3542  130.8638  156.8627 C.3     1  UNL1        0.0000
@<TRIPOS>BOND
     1    17    18    1
     2    18    19    1
     3    18    16    1
     4    16     5    1
     5     5     6   ar
     6     6     7   ar
     7     7     1    1
     8     1     2    2
     9     1     3   am
    10     3    20    1
    11    20    21    1
    12    21    22    1
    13    22    23    1
    14    23    24    1
    15    24    27    1
    16    27    28    1
    17    28    29    1
    18    29    30    1
    19    29    31    1
    20    29    32    1
    21    24    25    1
    22    25    26    1
    23     7     8   ar
    24     8     9   ar
    25     9    10    1
    26    10    11   ar
    27    11    12   ar
    28    12    13   ar
    29    13    14   ar
    30    14    15   ar
    31     9     5   ar
    32    15    10   ar
    33    26    21    1
    34    26    22    1
    35     3     4    1
@<TRIPOS>MOLECULE
*****
 32 35 0 0 0
SMALL
GASTEIGER

@<TRIPOS>ATOM
      1 C         142.1840  138.4893  160.1764 C.2     1  UNL1        0.2654
      2 O         143.6478  138.4650  159.8498 O.2     1  UNL1       -0.2684
      3 N         141.1684  138.4039  159.0758 N.am    1  UNL1       -0.2996
      4 H         140.2076  138.4199  159.2902 H       1  UNL1        0.1498
      5 C         140.4606  138.3236  163.6502 C.ar    1  UNL1        0.0622
      6 C         140.5251  137.9447  162.2003 C.ar    1  UNL1        0.0402
      7 C         141.7358  138.5990  161.6036 C.ar    1  UNL1        0.1555
      8 N         142.4196  139.3823  162.6848 N.ar    1  UNL1       -0.1608
      9 N         141.6314  139.2120  163.9497 N.ar    1  UNL1       -0.2336
     10 C         141.9570  139.8230  165.2804 C.ar    1  UNL1        0.0824
     11 C         142.4563  138.9591  166.4003 C.ar    1  UNL1        0.0191
     12 C         142.7819  139.5702  167.7310 C.ar    1  UNL1        0.0015
     13 C         142.6082  141.0451  167.9417 C.ar    1  UNL1        0.0001
     14 C         142.1089  141.9090  166.8217 C.ar    1  UNL1        0.0015
     15 C         141.7833  141.2979  165.4911 C.ar    1  UNL1        0.0191
     16 C         139.4097  137.8901  164.6289 C.3     1  UNL1        0.0459
     17 C         138.2319  140.2054  164.5812 C.3     1  UNL1        0.0004
     18 C         138.5248  138.9110  165.2805 C.3     1  UNL1        0.0059
     19 C         137.9327  138.6376  166.6314 C.3     1  UNL1        0.0004
     20 C         141.6166  138.2942  157.6486 C.3     1  UNL1        0.0898
     21 C         142.0283  136.9636  157.0919 C.3     1  UNL1        0.0224
     22 C         141.7842  135.8133  156.1607 C.3     1  UNL1        0.0191
     23 C         141.8045  134.5490  155.3536 C.3     1  UNL1        0.0721
     24 N         143.0183  133.7636  155.7531 N.3     1  UNL1       -0.2727
     25 C         143.7483  134.5424  156.8071 C.3     1  UNL1        0.0721
     26 C         142.9855  135.8092  157.0589 C.3     1  UNL1        0.0191
     27 C         143.4300  132.4329  155.1965 C.3     1  UNL1        0.0721
     28 C         144.5118  131.6408  155.8690 C.3     1  UNL1        0.0173
     29 C         144.1597  130.6407  156.9301 C.3     1  UNL1        0.0013
     30 C         145.0930  131.3248  157.8845 C.3     1  UNL1        0.0000
     31 C         143.2264  129.9567  155.9757 C.3     1  UNL1        0.0000
     32 C         143.8077  129.6406  157.9912 C.3     1  UNL1        0.0000
@<TRIPOS>BOND
     1    17    18    1
     2    18    19    1
     3    18    16    1
     4    16     5    1
     5     5     6   ar
     6     6     7   ar
     7     7     1    1
     8     1     2    2
     9     1     3   am
    10     3    20    1
    11    20    21    1
    12    21    22    1
    13    22    23    1
    14    23    24    1
    15    24    27    1
    16    27    28    1
    17    28    29    1
    18    29    30    1
    19    29    31    1
    20    29    32    1
    21    24    25    1
    22    25    26    1
    23     7     8   ar
    24     8     9   ar
    25     9    10    1
    26    10    11   ar
    27    11    12   ar
    28    12    13   ar
    29    13    14   ar
    30    14    15   ar
    31     9     5   ar
    32    15    10   ar
    33    26    21    1
    34    26    22    1
    35     3     4    1
@<TRIPOS>MOLECULE
*****
 32 35 0 0 0
SMALL
GASTEIGER

@<TRIPOS>ATOM
      1 C         141.9669  138.5198  158.9299 C.2     1  UNL1        0.2654
      2 O         143.3398  138.5206  158.3256 O.2     1  UNL1       -0.2684
      3 N         140.7801  138.1397  158.0950 N.am    1  UNL1       -0.2996
      4 H         139.8790  138.1392  158.4916 H       1  UNL1        0.1498
      5 C         142.1524  139.8424  162.5743 C.ar    1  UNL1        0.0622
      6 C         142.7361  139.7039  161.1995 C.ar    1  UNL1        0.0402
      7 C         141.7808  138.8991  160.3691 C.ar    1  UNL1        0.1555
      8 N         140.6065  138.5403  161.2308 N.ar    1  UNL1       -0.1608
      9 N         140.8363  139.1233  162.5937 N.ar    1  UNL1       -0.2336
     10 C         139.9120  139.0075  163.7693 C.ar    1  UNL1        0.0824
     11 C         139.6751  137.6713  164.4084 C.ar    1  UNL1        0.0191
     12 C         138.7508  137.5555  165.5841 C.ar    1  UNL1        0.0015
     13 C         138.0634  138.7760  166.1208 C.ar    1  UNL1        0.0001
     14 C         138.3003  140.1122  165.4817 C.ar    1  UNL1        0.0015
     15 C         139.2245  140.2279  164.3060 C.ar    1  UNL1        0.0191
     16 C         142.7755  140.5721  163.7273 C.3     1  UNL1        0.0459
     17 C         142.9037  139.4234  166.0542 C.3     1  UNL1        0.0004
     18 C         143.5552  139.8147  164.7609 C.3     1  UNL1        0.0059
     19 C         144.9866  139.4486  164.5013 C.3     1  UNL1        0.0004
     20 C         140.9662  137.7603  156.6557 C.3     1  UNL1        0.0898
     21 C         141.5776  136.4371  156.3019 C.3     1  UNL1        0.0224
     22 C         142.7230  135.4720  156.3834 C.3     1  UNL1        0.0191
     23 C         143.6851  134.3253  156.2867 C.3     1  UNL1        0.0721
     24 N         143.0480  133.2549  155.4511 N.3     1  UNL1       -0.2727
     25 C         141.6921  133.7400  155.0313 C.3     1  UNL1        0.0721
     26 C         141.4912  135.1103  155.6076 C.3     1  UNL1        0.0191
     27 C         143.6594  131.9316  155.0972 C.3     1  UNL1        0.0721
     28 C         144.7897  131.3843  155.9175 C.3     1  UNL1        0.0173
     29 C         144.5014  130.5257  157.1132 C.3     1  UNL1        0.0013
     30 C         145.2278  131.5026  157.9897 C.3     1  UNL1        0.0000
     31 C         143.7751  129.5489  156.2368 C.3     1  UNL1        0.0000
     32 C         144.2132  129.6672  158.3090 C.3     1  UNL1        0.0000
@<TRIPOS>BOND
     1    17    18    1
     2    18    19    1
     3    18    16    1
     4    16     5    1
     5     5     6   ar
     6     6     7   ar
     7     7     1    1
     8     1     2    2
     9     1     3   am
    10     3    20    1
    11    20    21    1
    12    21    22    1
    13    22    23    1
    14    23    24    1
    15    24    27    1
    16    27    28    1
    17    28    29    1
    18    29    30    1
    19    29    31    1
    20    29    32    1
    21    24    25    1
    22    25    26    1
    23     7     8   ar
    24     8     9   ar
    25     9    10    1
    26    10    11   ar
    27    11    12   ar
    28    12    13   ar
    29    13    14   ar
    30    14    15   ar
    31     9     5   ar
    32    15    10   ar
    33    26    21    1
    34    26    22    1
    35     3     4    1
@<TRIPOS>MOLECULE
*****
 32 35 0 0 0
SMALL
GASTEIGER

@<TRIPOS>ATOM
      1 C         139.6116  139.2809  158.8544 C.2     1  UNL1        0.2654
      2 O         138.4476  139.6416  157.9798 O.2     1  UNL1       -0.2684
      3 N         140.7314  138.4467  158.3065 N.am    1  UNL1       -0.2996
      4 H         141.4954  138.2101  158.8806 H       1  UNL1        0.1498
      5 C         139.9311  139.7975  162.6880 C.ar    1  UNL1        0.0622
      6 C         140.0169  138.9232  161.4722 C.ar    1  UNL1        0.0402
      7 C         139.6559  139.7545  160.2770 C.ar    1  UNL1        0.1555
      8 N         139.3470  141.1427  160.7541 N.ar    1  UNL1       -0.1608
      9 N         139.5170  141.1691  162.2443 N.ar    1  UNL1       -0.2336
     10 C         139.3095  142.3586  163.1343 C.ar    1  UNL1        0.0824
     11 C         137.9202  142.8404  163.4305 C.ar    1  UNL1        0.0191
     12 C         137.7127  144.0298  164.3205 C.ar    1  UNL1        0.0015
     13 C         138.8945  144.7375  164.9144 C.ar    1  UNL1        0.0001
     14 C         140.2838  144.2557  164.6182 C.ar    1  UNL1        0.0015
     15 C         140.4913  143.0662  163.7282 C.ar    1  UNL1        0.0191
     16 C         140.2103  139.3743  164.0997 C.3     1  UNL1        0.0459
     17 C         138.8639  137.4446  165.2014 C.3     1  UNL1        0.0004
     18 C         139.0874  138.9112  164.9799 C.3     1  UNL1        0.0059
     19 C         138.1879  139.9149  165.6387 C.3     1  UNL1        0.0004
     20 C         140.6872  137.9731  156.8839 C.3     1  UNL1        0.0898
     21 C         141.3549  136.6858  156.5009 C.3     1  UNL1        0.0224
     22 C         141.3814  135.4298  155.6812 C.3     1  UNL1        0.0191
     23 C         141.6754  134.1183  155.0153 C.3     1  UNL1        0.0721
     24 N         142.9608  133.5898  155.5797 N.3     1  UNL1       -0.2727
     25 C         143.4612  134.5747  156.5944 C.3     1  UNL1        0.0721
     26 C         142.4851  135.7119  156.6571 C.3     1  UNL1        0.0191
     27 C         143.6286  132.3024  155.1967 C.3     1  UNL1        0.0721
     28 C         144.8272  131.8230  155.9605 C.3     1  UNL1        0.0173
     29 C         144.6513  130.9009  157.1305 C.3     1  UNL1        0.0013
     30 C         145.3784  131.8760  158.0082 C.3     1  UNL1        0.0000
     31 C         143.9242  129.9258  156.2528 C.3     1  UNL1        0.0000
     32 C         144.4754  129.9788  158.3005 C.3     1  UNL1        0.0000
@<TRIPOS>BOND
     1    17    18    1
     2    18    19    1
     3    18    16    1
     4    16     5    1
     5     5     6   ar
     6     6     7   ar
     7     7     1    1
     8     1     2    2
     9     1     3   am
    10     3    20    1
    11    20    21    1
    12    21    22    1
    13    22    23    1
    14    23    24    1
    15    24    27    1
    16    27    28    1
    17    28    29    1
    18    29    30    1
    19    29    31    1
    20    29    32    1
    21    24    25    1
    22    25    26    1
    23     7     8   ar
    24     8     9   ar
    25     9    10    1
    26    10    11   ar
    27    11    12   ar
    28    12    13   ar
    29    13    14   ar
    30    14    15   ar
    31     9     5   ar
    32    15    10   ar
    33    26    21    1
    34    26    22    1
    35     3     4    1
@<TRIPOS>MOLECULE
*****
 32 35 0 0 0
SMALL
GASTEIGER

@<TRIPOS>ATOM
      1 C         140.8043  138.6958  162.2816 C.2     1  UNL1        0.2654
      2 O         140.8898  137.2162  162.5128 O.2     1  UNL1       -0.2684
      3 N         141.2974  139.2833  160.9925 N.am    1  UNL1       -0.2996
      4 H         141.2413  140.2544  160.8408 H       1  UNL1        0.1498
      5 C         138.8738  141.2634  164.4600 C.ar    1  UNL1        0.0622
      6 C         139.1385  140.6018  163.1401 C.ar    1  UNL1        0.0402
      7 C         140.2259  139.5880  163.3396 C.ar    1  UNL1        0.1555
      8 N         140.6332  139.6230  164.7828 N.ar    1  UNL1       -0.1608
      9 N         139.7975  140.6586  165.4752 N.ar    1  UNL1       -0.2336
     10 C         139.8725  141.0248  166.9279 C.ar    1  UNL1        0.0824
     11 C         140.4691  142.3377  167.3406 C.ar    1  UNL1        0.0191
     12 C         140.5441  142.7038  168.7933 C.ar    1  UNL1        0.0015
     13 C         140.0224  141.7571  169.8333 C.ar    1  UNL1        0.0001
     14 C         139.4257  140.4443  169.4206 C.ar    1  UNL1        0.0015
     15 C         139.3507  140.0781  167.9679 C.ar    1  UNL1        0.0191
     16 C         137.8628  142.3408  164.7191 C.3     1  UNL1        0.0459
     17 C         138.7163  144.7247  165.3011 C.3     1  UNL1        0.0004
     18 C         138.1505  143.7541  164.3072 C.3     1  UNL1        0.0059
     19 C         137.8723  144.1969  162.9012 C.3     1  UNL1        0.0004
     20 C         141.8759  138.3911  159.9345 C.3     1  UNL1        0.0898
     21 C         142.6614  138.9826  158.8018 C.3     1  UNL1        0.0224
     22 C         143.0679  138.9721  157.3580 C.3     1  UNL1        0.0191
     23 C         143.6458  139.2116  155.9946 C.3     1  UNL1        0.0721
     24 N         144.5505  140.4051  156.0778 N.3     1  UNL1       -0.2727
     25 C         144.5318  140.9033  157.4925 C.3     1  UNL1        0.0721
     26 C         143.6155  140.0176  158.2838 C.3     1  UNL1        0.0191
     27 C         145.3361  140.9966  154.9451 C.3     1  UNL1        0.0721
     28 C         146.2128  142.1902  155.1832 C.3     1  UNL1        0.0173
     29 C         147.7050  142.0369  155.1816 C.3     1  UNL1        0.0013
     30 C         147.7514  142.4746  156.6156 C.3     1  UNL1        0.0000
     31 C         147.6585  141.5993  153.7477 C.3     1  UNL1        0.0000
     32 C         149.1971  141.8836  155.1801 C.3     1  UNL1        0.0000
@<TRIPOS>BOND
     1    17    18    1
     2    18    19    1
     3    18    16    1
     4    16     5    1
     5     5     6   ar
     6     6     7   ar
     7     7     1    1
     8     1     2    2
     9     1     3   am
    10     3    20    1
    11    20    21    1
    12    21    22    1
    13    22    23    1
    14    23    24    1
    15    24    27    1
    16    27    28    1
    17    28    29    1
    18    29    30    1
    19    29    31    1
    20    29    32    1
    21    24    25    1
    22    25    26    1
    23     7     8   ar
    24     8     9   ar
    25     9    10    1
    26    10    11   ar
    27    11    12   ar
    28    12    13   ar
    29    13    14   ar
    30    14    15   ar
    31     9     5   ar
    32    15    10   ar
    33    26    21    1
    34    26    22    1
    35     3     4    1
@<TRIPOS>MOLECULE
*****
 32 35 0 0 0
SMALL
GASTEIGER

@<TRIPOS>ATOM
      1 C         142.6417  138.5815  160.4827 C.2     1  UNL1        0.2654
      2 O         144.1229  138.6985  160.2765 O.2     1  UNL1       -0.2684
      3 N         141.7356  138.3636  159.3073 N.am    1  UNL1       -0.2996
      4 H         140.7635  138.2869  159.4427 H       1  UNL1        0.1498
      5 C         140.6140  138.3921  163.7869 C.ar    1  UNL1        0.0622
      6 C         140.8102  138.0205  162.3470 C.ar    1  UNL1        0.0402
      7 C         142.0666  138.6826  161.8644 C.ar    1  UNL1        0.1555
      8 N         142.6470  139.4635  163.0061 N.ar    1  UNL1       -0.1608
      9 N         141.7491  139.2839  164.1943 N.ar    1  UNL1       -0.2336
     10 C         141.9512  139.8899  165.5515 C.ar    1  UNL1        0.0824
     11 C         142.4939  139.0543  166.6727 C.ar    1  UNL1        0.0191
     12 C         142.6959  139.6603  168.0299 C.ar    1  UNL1        0.0015
     13 C         142.3552  141.1020  168.2659 C.ar    1  UNL1        0.0001
     14 C         141.8124  141.9375  167.1446 C.ar    1  UNL1        0.0015
     15 C         141.6104  141.3315  165.7874 C.ar    1  UNL1        0.0191
     16 C         139.4815  137.9496  164.6653 C.3     1  UNL1        0.0459
     17 C         138.0758  138.7639  166.6929 C.3     1  UNL1        0.0004
     18 C         138.5779  138.9684  165.2943 C.3     1  UNL1        0.0059
     19 C         138.1762  140.1916  164.5245 C.3     1  UNL1        0.0004
     20 C         142.3107  138.2626  157.9257 C.3     1  UNL1        0.0898
     21 C         142.3628  136.9346  157.2302 C.3     1  UNL1        0.0224
     22 C         141.7967  135.9671  156.2335 C.3     1  UNL1        0.0191
     23 C         141.4684  134.8169  155.3283 C.3     1  UNL1        0.0721
     24 N         142.4880  133.7409  155.5577 N.3     1  UNL1       -0.2727
     25 C         143.4464  134.2261  156.6046 C.3     1  UNL1        0.0721
     26 C         143.0192  135.6019  157.0223 C.3     1  UNL1        0.0191
     27 C         142.5401  132.4129  154.8622 C.3     1  UNL1        0.0721
     28 C         141.2769  131.6383  154.6290 C.3     1  UNL1        0.0173
     29 C         141.2151  130.1812  154.9799 C.3     1  UNL1        0.0013
     30 C         142.6976  130.1733  155.2080 C.3     1  UNL1        0.0000
     31 C         139.7327  130.1891  154.7517 C.3     1  UNL1        0.0000
     32 C         141.1534  128.7241  155.3307 C.3     1  UNL1        0.0000
@<TRIPOS>BOND
     1    17    18    1
     2    18    19    1
     3    18    16    1
     4    16     5    1
     5     5     6   ar
     6     6     7   ar
     7     7     1    1
     8     1     2    2
     9     1     3   am
    10     3    20    1
    11    20    21    1
    12    21    22    1
    13    22    23    1
    14    23    24    1
    15    24    27    1
    16    27    28    1
    17    28    29    1
    18    29    30    1
    19    29    31    1
    20    29    32    1
    21    24    25    1
    22    25    26    1
    23     7     8   ar
    24     8     9   ar
    25     9    10    1
    26    10    11   ar
    27    11    12   ar
    28    12    13   ar
    29    13    14   ar
    30    14    15   ar
    31     9     5   ar
    32    15    10   ar
    33    26    21    1
    34    26    22    1
    35     3     4    1
@<TRIPOS>MOLECULE
*****
 32 35 0 0 0
SMALL
GASTEIGER

@<TRIPOS>ATOM
      1 C         139.2276  139.2122  162.2802 C.2     1  UNL1        0.2654
      2 O         138.0376  138.2990  162.2814 O.2     1  UNL1       -0.2684
      3 N         139.7424  139.7717  160.9872 N.am    1  UNL1       -0.2996
      4 H         140.5235  140.3711  160.9864 H       1  UNL1        0.1498
      5 C         141.6039  139.9132  165.2680 C.ar    1  UNL1        0.0622
      6 C         141.3709  139.4551  163.8588 C.ar    1  UNL1        0.0402
      7 C         139.9028  139.5659  163.5721 C.ar    1  UNL1        0.1555
      8 N         139.2284  140.0925  164.8041 N.ar    1  UNL1       -0.1608
      9 N         140.2798  140.3071  165.8523 N.ar    1  UNL1       -0.2336
     10 C         140.0477  140.8248  167.2408 C.ar    1  UNL1        0.0824
     11 C         139.3275  139.9767  168.2468 C.ar    1  UNL1        0.0191
     12 C         139.0954  140.4945  169.6354 C.ar    1  UNL1        0.0015
     13 C         139.5835  141.8603  170.0179 C.ar    1  UNL1        0.0001
     14 C         140.3037  142.7084  169.0119 C.ar    1  UNL1        0.0015
     15 C         140.5358  142.1906  167.6234 C.ar    1  UNL1        0.0191
     16 C         142.9285  139.9678  165.9698 C.3     1  UNL1        0.0459
     17 C         142.8067  139.2092  168.4517 C.3     1  UNL1        0.0004
     18 C         143.2522  138.9676  167.0398 C.3     1  UNL1        0.0059
     19 C         144.0213  137.7259  166.6980 C.3     1  UNL1        0.0004
     20 C         139.0672  139.4180  159.6953 C.3     1  UNL1        0.0898
     21 C         139.8391  138.7280  158.6099 C.3     1  UNL1        0.0224
     22 C         139.8645  137.9255  157.3429 C.3     1  UNL1        0.0191
     23 C         140.2012  137.1426  156.1085 C.3     1  UNL1        0.0721
     24 N         141.6954  137.0684  155.9999 N.3     1  UNL1       -0.2727
     25 C         142.2822  137.8055  157.1671 C.3     1  UNL1        0.0721
     26 C         141.1507  138.3352  157.9971 C.3     1  UNL1        0.0191
     27 C         142.4673  136.3783  154.9145 C.3     1  UNL1        0.0721
     28 C         143.1420  135.0675  155.1913 C.3     1  UNL1        0.0173
     29 C         142.3320  133.8068  155.2595 C.3     1  UNL1        0.0013
     30 C         141.8405  134.0472  153.8628 C.3     1  UNL1        0.0000
     31 C         142.8236  133.5665  156.6560 C.3     1  UNL1        0.0000
     32 C         141.5221  132.5461  155.3276 C.3     1  UNL1        0.0000
@<TRIPOS>BOND
     1    17    18    1
     2    18    19    1
     3    18    16    1
     4    16     5    1
     5     5     6   ar
     6     6     7   ar
     7     7     1    1
     8     1     2    2
     9     1     3   am
    10     3    20    1
    11    20    21    1
    12    21    22    1
    13    22    23    1
    14    23    24    1
    15    24    27    1
    16    27    28    1
    17    28    29    1
    18    29    30    1
    19    29    31    1
    20    29    32    1
    21    24    25    1
    22    25    26    1
    23     7     8   ar
    24     8     9   ar
    25     9    10    1
    26    10    11   ar
    27    11    12   ar
    28    12    13   ar
    29    13    14   ar
    30    14    15   ar
    31     9     5   ar
    32    15    10   ar
    33    26    21    1
    34    26    22    1
    35     3     4    1
@<TRIPOS>MOLECULE
*****
 32 35 0 0 0
SMALL
GASTEIGER

@<TRIPOS>ATOM
      1 C         142.7279  139.3423  160.2013 C.2     1  UNL1        0.2654
      2 O         144.1067  138.7538  160.2496 O.2     1  UNL1       -0.2684
      3 N         142.0226  139.4939  158.8862 N.am    1  UNL1       -0.2996
      4 H         141.1176  139.8801  158.8545 H       1  UNL1        0.1498
      5 C         141.2422  139.8208  163.7551 C.ar    1  UNL1        0.0622
      6 C         142.0217  139.0151  162.7585 C.ar    1  UNL1        0.0402
      7 C         142.0542  139.7794  161.4683 C.ar    1  UNL1        0.1555
      8 N         141.2947  141.0575  161.6674 N.ar    1  UNL1       -0.1608
      9 N         140.7928  141.0830  163.0808 N.ar    1  UNL1       -0.2336
     10 C         139.9837  142.1785  163.7094 C.ar    1  UNL1        0.0824
     11 C         140.6566  143.4363  164.1733 C.ar    1  UNL1        0.0191
     12 C         139.8474  144.5318  164.8019 C.ar    1  UNL1        0.0015
     13 C         138.3653  144.3696  164.9665 C.ar    1  UNL1        0.0001
     14 C         137.6924  143.1118  164.5026 C.ar    1  UNL1        0.0015
     15 C         138.5016  142.0163  163.8740 C.ar    1  UNL1        0.0191
     16 C         140.9613  139.4324  165.1765 C.3     1  UNL1        0.0459
     17 C         138.9792  137.8041  164.7639 C.3     1  UNL1        0.0004
     18 C         139.6076  138.9108  165.5579 C.3     1  UNL1        0.0059
     19 C         138.8823  139.4958  166.7335 C.3     1  UNL1        0.0004
     20 C         142.6963  139.0568  157.6192 C.3     1  UNL1        0.0898
     21 C         142.5583  137.6399  157.1467 C.3     1  UNL1        0.0224
     22 C         141.8852  136.6205  156.2762 C.3     1  UNL1        0.0191
     23 C         141.4118  135.4014  155.5417 C.3     1  UNL1        0.0721
     24 N         142.2266  134.2324  156.0103 N.3     1  UNL1       -0.2727
     25 C         143.2037  134.7291  157.0343 C.3     1  UNL1        0.0721
     26 C         142.9926  136.2051  157.1987 C.3     1  UNL1        0.0191
     27 C         142.0887  132.8155  155.5378 C.3     1  UNL1        0.0721
     28 C         143.3107  132.0199  155.1859 C.3     1  UNL1        0.0173
     29 C         143.7593  130.9005  156.0780 C.3     1  UNL1        0.0013
     30 C         145.0528  131.6178  156.3275 C.3     1  UNL1        0.0000
     31 C         142.4658  130.1832  155.8285 C.3     1  UNL1        0.0000
     32 C         144.2080  129.7811  156.9701 C.3     1  UNL1        0.0000
@<TRIPOS>BOND
     1    17    18    1
     2    18    19    1
     3    18    16    1
     4    16     5    1
     5     5     6   ar
     6     6     7   ar
     7     7     1    1
     8     1     2    2
     9     1     3   am
    10     3    20    1
    11    20    21    1
    12    21    22    1
    13    22    23    1
    14    23    24    1
    15    24    27    1
    16    27    28    1
    17    28    29    1
    18    29    30    1
    19    29    31    1
    20    29    32    1
    21    24    25    1
    22    25    26    1
    23     7     8   ar
    24     8     9   ar
    25     9    10    1
    26    10    11   ar
    27    11    12   ar
    28    12    13   ar
    29    13    14   ar
    30    14    15   ar
    31     9     5   ar
    32    15    10   ar
    33    26    21    1
    34    26    22    1
    35     3     4    1
@<TRIPOS>MOLECULE
*****
 32 35 0 0 0
SMALL
GASTEIGER

@<TRIPOS>ATOM
      1 C         141.5403  138.1177  158.9390 C.2     1  UNL1        0.2654
      2 O         140.3207  138.1132  158.0656 O.2     1  UNL1       -0.2684
      3 N         142.8535  137.6373  158.3960 N.am    1  UNL1       -0.2996
      4 H         143.6539  137.6403  158.9692 H       1  UNL1        0.1498
      5 C         141.9749  139.6744  162.4678 C.ar    1  UNL1        0.0622
      6 C         142.4794  139.4144  161.0794 C.ar    1  UNL1        0.0402
      7 C         141.4466  138.6027  160.3553 C.ar    1  UNL1        0.1555
      8 N         140.3037  138.3610  161.2963 N.ar    1  UNL1       -0.1608
      9 N         140.6303  139.0234  162.6019 N.ar    1  UNL1       -0.2336
     10 C         139.7642  139.0331  163.8265 C.ar    1  UNL1        0.0824
     11 C         139.1912  140.3247  164.3299 C.ar    1  UNL1        0.0191
     12 C         138.3250  140.3342  165.5545 C.ar    1  UNL1        0.0015
     13 C         138.0318  139.0521  166.2758 C.ar    1  UNL1        0.0001
     14 C         138.6048  137.7605  165.7725 C.ar    1  UNL1        0.0015
     15 C         139.4709  137.7510  164.5479 C.ar    1  UNL1        0.0191
     16 C         142.6896  140.4494  163.5349 C.3     1  UNL1        0.0459
     17 C         143.0632  138.9652  165.6343 C.3     1  UNL1        0.0004
     18 C         143.6180  139.7449  164.4792 C.3     1  UNL1        0.0059
     19 C         145.1013  139.8200  164.2683 C.3     1  UNL1        0.0004
     20 C         142.9471  137.1524  156.9797 C.3     1  UNL1        0.0898
     21 C         142.8868  135.6830  156.6845 C.3     1  UNL1        0.0224
     22 C         142.2415  134.5241  155.9840 C.3     1  UNL1        0.0191
     23 C         141.8176  133.1969  155.4283 C.3     1  UNL1        0.0721
     24 N         142.7417  132.1493  155.9746 N.3     1  UNL1       -0.2727
     25 C         143.7367  132.8289  156.8679 C.3     1  UNL1        0.0721
     26 C         143.4276  134.2967  156.8737 C.3     1  UNL1        0.0191
     27 C         142.6814  130.6798  155.6794 C.3     1  UNL1        0.0721
     28 C         141.7572  130.1658  154.6156 C.3     1  UNL1        0.0173
     29 C         140.6407  129.2323  154.9792 C.3     1  UNL1        0.0013
     30 C         141.6413  128.1655  155.3122 C.3     1  UNL1        0.0000
     31 C         139.6402  130.2990  154.6462 C.3     1  UNL1        0.0000
     32 C         139.5244  128.2987  155.3428 C.3     1  UNL1        0.0000
@<TRIPOS>BOND
     1    17    18    1
     2    18    19    1
     3    18    16    1
     4    16     5    1
     5     5     6   ar
     6     6     7   ar
     7     7     1    1
     8     1     2    2
     9     1     3   am
    10     3    20    1
    11    20    21    1
    12    21    22    1
    13    22    23    1
    14    23    24    1
    15    24    27    1
    16    27    28    1
    17    28    29    1
    18    29    30    1
    19    29    31    1
    20    29    32    1
    21    24    25    1
    22    25    26    1
    23     7     8   ar
    24     8     9   ar
    25     9    10    1
    26    10    11   ar
    27    11    12   ar
    28    12    13   ar
    29    13    14   ar
    30    14    15   ar
    31     9     5   ar
    32    15    10   ar
    33    26    21    1
    34    26    22    1
    35     3     4    1
