@<TRIPOS>MOLECULE
*****
 39 44 0 0 0
SMALL
GASTEIGER

@<TRIPOS>ATOM
      1 C         144.4666  139.7741  163.3934 C.3     1  UNL1        0.0700
      2 C         144.1195  139.4017  164.8043 C.3     1  UNL1        0.0193
      3 C         142.9977  138.4428  165.0726 C.3     1  UNL1        0.0286
      4 C         142.2228  137.8563  163.9299 C.3     1  UNL1        0.0932
      5 C         142.5699  138.2288  162.5190 C.3     1  UNL1        0.0286
      6 C         143.6918  139.1877  162.2507 C.3     1  UNL1        0.0193
      7 O         142.8292  138.3775  163.7334 O.3     1  UNL1       -0.3572
      8 C         143.8436  139.2446  163.4907 C.3     1  UNL1        0.1562
      9 N         145.5884  140.7330  163.1251 N.3     1  UNL1       -0.2926
     10 H         146.4239  140.3364  163.5551 H       1  UNL1        0.1236
     11 C         145.4904  142.1532  163.5979 C.3     1  UNL1        0.1152
     12 O         140.5866  145.6473  158.6488 O.2     1  UNL1       -0.2707
     13 C         140.9700  145.2714  160.0494 C.2     1  UNL1        0.2718
     14 C         140.1021  145.6844  161.2010 C.3     1  UNL1        0.2898
     15 O         140.4854  145.3085  162.6016 O.3     1  UNL1       -0.4628
     16 C         141.7366  144.5197  162.8507 C.ar    1  UNL1        0.1708
     17 C         142.1200  144.1438  164.2514 C.ar    1  UNL1        0.0411
     18 C         143.3712  143.3550  164.5005 C.ar    1  UNL1        0.0193
     19 C         144.2392  142.9420  163.3489 C.ar    1  UNL1        0.0765
     20 N         143.8559  143.3179  161.9482 N.ar    1  UNL1       -0.2304
     21 C         142.6045  144.1067  161.6992 C.ar    1  UNL1        0.1682
     22 N         142.2212  144.4826  160.2985 N.am    1  UNL1       -0.2639
     23 H         142.7909  144.2115  159.5427 H       1  UNL1        0.1565
     24 C         141.1010  136.8975  164.1982 C.3     1  UNL1        0.0319
     25 C         139.7464  137.4160  164.5804 C.3     1  UNL1        0.0304
     26 C         139.0438  138.4023  163.6953 C.ar    1  UNL1       -0.0014
     27 C         138.4433  137.9503  162.3971 C.ar    1  UNL1        0.0179
     28 C         137.7407  138.9366  161.5121 C.ar    1  UNL1        0.0986
     29 N         137.6385  140.3750  161.9251 N.ar    1  UNL1       -0.2423
     30 C         138.2389  140.8271  163.2231 C.ar    1  UNL1        0.0986
     31 C         138.1367  142.2655  163.6361 C.ar    1  UNL1        0.0260
     32 C         138.7372  142.7175  164.9343 C.ar    1  UNL1        0.0920
     33 C         139.4398  141.7312  165.8194 C.ar    1  UNL1        0.1028
     34 N         139.5420  140.2928  165.4064 N.ar    1  UNL1       -0.2427
     35 C         138.9416  139.8407  164.1083 C.ar    1  UNL1        0.0949
     36 C         138.6350  144.1559  165.3473 C.3     1  UNL1        0.4201
     37 F         138.5328  145.5943  165.7603 F       1  UNL1       -0.1658
     38 F         139.6383  143.9146  166.4360 F       1  UNL1       -0.1658
     39 F         137.6318  144.3973  164.2586 F       1  UNL1       -0.1658
@<TRIPOS>BOND
     1    12    13    2
     2    13    14    1
     3    14    15    1
     4    15    16    1
     5    16    17   ar
     6    17    18   ar
     7    18    19   ar
     8    19    11    1
     9    11     9    1
    10     9     1    1
    11     1     2    1
    12     2     3    1
    13     3     4    1
    14     4    24    1
    15    24    25    1
    16    25    26    1
    17    26    27   ar
    18    27    28   ar
    19    28    29   ar
    20    29    30   ar
    21    30    31   ar
    22    31    32   ar
    23    32    36    1
    24    36    37    1
    25    36    38    1
    26    36    39    1
    27    32    33   ar
    28    33    34   ar
    29    34    35   ar
    30     4     5    1
    31     5     6    1
    32     4     7    1
    33     7     8    1
    34    19    20   ar
    35    20    21   ar
    36    21    22    1
    37    22    13   am
    38    21    16   ar
    39     6     1    1
    40     8     1    1
    41    35    26   ar
    42    35    30   ar
    43     9    10    1
    44    22    23    1
@<TRIPOS>MOLECULE
*****
 39 44 0 0 0
SMALL
GASTEIGER

@<TRIPOS>ATOM
      1 C         137.8765  140.3115  161.9237 C.3     1  UNL1        0.0700
      2 C         137.6205  140.4577  163.3944 C.3     1  UNL1        0.0193
      3 C         137.5941  141.8210  164.0193 C.3     1  UNL1        0.0286
      4 C         137.8237  143.0383  163.1733 C.3     1  UNL1        0.0932
      5 C         138.0798  142.8922  161.7026 C.3     1  UNL1        0.0286
      6 C         138.1061  141.5287  161.0778 C.3     1  UNL1        0.0193
      7 O         137.8476  142.3121  162.7860 O.3     1  UNL1       -0.3572
      8 C         137.8715  141.0793  162.2210 C.3     1  UNL1        0.1562
      9 N         137.9028  138.9481  161.2988 N.3     1  UNL1       -0.2926
     10 H         137.4714  138.3096  161.9670 H       1  UNL1        0.1236
     11 C         139.2101  138.3335  160.8946 C.3     1  UNL1        0.1152
     12 O         145.9914  141.6437  162.8457 O.2     1  UNL1       -0.2707
     13 C         144.9168  140.6309  163.1094 C.2     1  UNL1        0.2718
     14 C         145.0281  139.7087  164.2872 C.3     1  UNL1        0.2898
     15 O         143.9535  138.6959  164.5509 O.3     1  UNL1       -0.4628
     16 C         142.7677  138.6053  163.6368 C.ar    1  UNL1        0.1708
     17 C         141.6931  137.5925  163.9005 C.ar    1  UNL1        0.0411
     18 C         140.5073  137.5019  162.9865 C.ar    1  UNL1        0.0193
     19 C         140.3960  138.4241  161.8086 C.ar    1  UNL1        0.0765
     20 N         141.4705  139.4369  161.5449 N.ar    1  UNL1       -0.2304
     21 C         142.6564  139.5275  162.4591 C.ar    1  UNL1        0.1682
     22 N         143.7310  140.5403  162.1954 N.am    1  UNL1       -0.2639
     23 H         143.6580  141.1455  161.4223 H       1  UNL1        0.1565
     24 C         137.7974  144.4017  163.7982 C.3     1  UNL1        0.0319
     25 C         138.9205  144.8394  164.6910 C.3     1  UNL1        0.0304
     26 C         140.3049  144.3056  164.4712 C.ar    1  UNL1       -0.0014
     27 C         141.1550  144.8579  163.3655 C.ar    1  UNL1        0.0179
     28 C         142.5394  144.3242  163.1458 C.ar    1  UNL1        0.0986
     29 N         143.0739  143.2381  164.0316 N.ar    1  UNL1       -0.2423
     30 C         142.2239  142.6858  165.1373 C.ar    1  UNL1        0.0986
     31 C         142.7584  141.5997  166.0231 C.ar    1  UNL1        0.0260
     32 C         141.9084  141.0474  167.1288 C.ar    1  UNL1        0.0920
     33 C         140.5239  141.5812  167.3486 C.ar    1  UNL1        0.1028
     34 N         139.9894  142.6673  166.4627 N.ar    1  UNL1       -0.2427
     35 C         140.8394  143.2196  165.3571 C.ar    1  UNL1        0.0949
     36 C         142.4428  139.9613  168.0147 C.3     1  UNL1        0.4201
     37 F         142.9773  138.8752  168.9005 F       1  UNL1       -0.1658
     38 F         142.8345  140.9874  169.0363 F       1  UNL1       -0.1658
     39 F         142.0512  138.9352  166.9930 F       1  UNL1       -0.1658
@<TRIPOS>BOND
     1    12    13    2
     2    13    14    1
     3    14    15    1
     4    15    16    1
     5    16    17   ar
     6    17    18   ar
     7    18    19   ar
     8    19    11    1
     9    11     9    1
    10     9     1    1
    11     1     2    1
    12     2     3    1
    13     3     4    1
    14     4    24    1
    15    24    25    1
    16    25    26    1
    17    26    27   ar
    18    27    28   ar
    19    28    29   ar
    20    29    30   ar
    21    30    31   ar
    22    31    32   ar
    23    32    36    1
    24    36    37    1
    25    36    38    1
    26    36    39    1
    27    32    33   ar
    28    33    34   ar
    29    34    35   ar
    30     4     5    1
    31     5     6    1
    32     4     7    1
    33     7     8    1
    34    19    20   ar
    35    20    21   ar
    36    21    22    1
    37    22    13   am
    38    21    16   ar
    39     6     1    1
    40     8     1    1
    41    35    26   ar
    42    35    30   ar
    43     9    10    1
    44    22    23    1
@<TRIPOS>MOLECULE
*****
 39 44 0 0 0
SMALL
GASTEIGER

@<TRIPOS>ATOM
      1 C         141.1677  137.5269  162.4042 C.3     1  UNL1        0.0700
      2 C         141.6098  137.1873  163.7968 C.3     1  UNL1        0.0193
      3 C         140.6538  137.3325  164.9435 C.3     1  UNL1        0.0286
      4 C         139.2557  137.8173  164.6977 C.3     1  UNL1        0.0932
      5 C         138.8136  138.1568  163.3051 C.3     1  UNL1        0.0286
      6 C         139.7696  138.0116  162.1584 C.3     1  UNL1        0.0193
      7 O         139.7437  137.7537  164.0376 O.3     1  UNL1       -0.3572
      8 C         140.6081  137.6225  163.0007 C.3     1  UNL1        0.1562
      9 N         142.1236  137.3817  161.2575 N.3     1  UNL1       -0.2926
     10 H         142.3846  136.3966  161.2146 H       1  UNL1        0.1236
     11 C         143.4003  138.1690  161.2410 C.3     1  UNL1        0.1152
     12 O         144.9688  144.0270  166.1373 O.2     1  UNL1       -0.2707
     13 C         144.4278  143.5395  164.8260 C.2     1  UNL1        0.2718
     14 C         143.8686  144.5172  163.8354 C.3     1  UNL1        0.2898
     15 O         143.3275  144.0297  162.5240 O.3     1  UNL1       -0.4628
     16 C         143.3457  142.5646  162.2032 C.ar    1  UNL1        0.1708
     17 C         142.8047  142.0771  160.8919 C.ar    1  UNL1        0.0411
     18 C         142.8229  140.6119  160.5711 C.ar    1  UNL1        0.0193
     19 C         143.3821  139.6342  161.5618 C.ar    1  UNL1        0.0765
     20 N         143.9232  140.1216  162.8731 N.ar    1  UNL1       -0.2304
     21 C         143.9049  141.5869  163.1938 C.ar    1  UNL1        0.1682
     22 N         144.4460  142.0743  164.5052 N.am    1  UNL1       -0.2639
     23 H         144.8130  141.4326  165.1554 H       1  UNL1        0.1565
     24 C         138.2998  137.9625  165.8444 C.3     1  UNL1        0.0319
     25 C         138.2168  139.2602  166.5920 C.3     1  UNL1        0.0304
     26 C         139.3649  140.2247  166.5501 C.ar    1  UNL1       -0.0014
     27 C         140.5706  139.9934  167.4119 C.ar    1  UNL1        0.0179
     28 C         141.7187  140.9578  167.3699 C.ar    1  UNL1        0.0986
     29 N         141.6611  142.1535  166.4661 N.ar    1  UNL1       -0.2423
     30 C         140.4554  142.3848  165.6043 C.ar    1  UNL1        0.0986
     31 C         140.3978  143.5806  164.7004 C.ar    1  UNL1        0.0260
     32 C         139.1921  143.8119  163.8386 C.ar    1  UNL1        0.0920
     33 C         138.0440  142.8474  163.8806 C.ar    1  UNL1        0.1028
     34 N         138.1016  141.6517  164.7844 N.ar    1  UNL1       -0.2427
     35 C         139.3073  141.4204  165.6462 C.ar    1  UNL1        0.0949
     36 C         139.1344  145.0076  162.9347 C.3     1  UNL1        0.4201
     37 F         139.0768  146.2033  162.0309 F       1  UNL1       -0.1658
     38 F         140.6056  145.2259  163.1297 F       1  UNL1       -0.1658
     39 F         137.6633  144.7893  162.7398 F       1  UNL1       -0.1658
@<TRIPOS>BOND
     1    12    13    2
     2    13    14    1
     3    14    15    1
     4    15    16    1
     5    16    17   ar
     6    17    18   ar
     7    18    19   ar
     8    19    11    1
     9    11     9    1
    10     9     1    1
    11     1     2    1
    12     2     3    1
    13     3     4    1
    14     4    24    1
    15    24    25    1
    16    25    26    1
    17    26    27   ar
    18    27    28   ar
    19    28    29   ar
    20    29    30   ar
    21    30    31   ar
    22    31    32   ar
    23    32    36    1
    24    36    37    1
    25    36    38    1
    26    36    39    1
    27    32    33   ar
    28    33    34   ar
    29    34    35   ar
    30     4     5    1
    31     5     6    1
    32     4     7    1
    33     7     8    1
    34    19    20   ar
    35    20    21   ar
    36    21    22    1
    37    22    13   am
    38    21    16   ar
    39     6     1    1
    40     8     1    1
    41    35    26   ar
    42    35    30   ar
    43     9    10    1
    44    22    23    1
@<TRIPOS>MOLECULE
*****
 39 44 0 0 0
SMALL
GASTEIGER

@<TRIPOS>ATOM
      1 C         144.2774  139.6361  163.4538 C.3     1  UNL1        0.0700
      2 C         143.2273  139.2850  162.4419 C.3     1  UNL1        0.0193
      3 C         142.0275  138.4842  162.8530 C.3     1  UNL1        0.0286
      4 C         141.8778  138.0343  164.2762 C.3     1  UNL1        0.0932
      5 C         142.9279  138.3854  165.2881 C.3     1  UNL1        0.0286
      6 C         144.1277  139.1863  164.8769 C.3     1  UNL1        0.0193
      7 O         142.5526  138.4712  164.0982 O.3     1  UNL1       -0.3572
      8 C         143.6375  139.1953  163.7264 C.3     1  UNL1        0.1562
      9 N         145.4772  140.4369  163.0427 N.3     1  UNL1       -0.2926
     10 H         146.2863  140.0056  163.4895 H       1  UNL1        0.1236
     11 C         145.5421  141.9033  163.3521 C.3     1  UNL1        0.1152
     12 O         140.4505  145.7011  158.8352 O.2     1  UNL1       -0.2707
     13 C         140.9213  145.2869  160.1979 C.2     1  UNL1        0.2718
     14 C         140.1656  145.7243  161.4175 C.3     1  UNL1        0.2898
     15 O         140.6364  145.3101  162.7802 O.3     1  UNL1       -0.4628
     16 C         141.8628  144.4584  162.9232 C.ar    1  UNL1        0.1708
     17 C         142.3336  144.0442  164.2858 C.ar    1  UNL1        0.0411
     18 C         143.5600  143.1925  164.4288 C.ar    1  UNL1        0.0193
     19 C         144.3157  142.7550  163.2091 C.ar    1  UNL1        0.0765
     20 N         143.8450  143.1692  161.8464 N.ar    1  UNL1       -0.2304
     21 C         142.6185  144.0210  161.7035 C.ar    1  UNL1        0.1682
     22 N         142.1477  144.4352  160.3409 N.am    1  UNL1       -0.2639
     23 H         142.6437  144.1481  159.5404 H       1  UNL1        0.1565
     24 C         140.6780  137.2335  164.6873 C.3     1  UNL1        0.0319
     25 C         139.4188  137.9314  165.1085 C.3     1  UNL1        0.0304
     26 C         139.2929  139.4167  164.9419 C.ar    1  UNL1       -0.0014
     27 C         138.6549  139.9816  163.7075 C.ar    1  UNL1        0.0179
     28 C         138.5290  141.4670  163.5409 C.ar    1  UNL1        0.0986
     29 N         139.0411  142.3875  164.6088 N.ar    1  UNL1       -0.2423
     30 C         139.6792  141.8227  165.8432 C.ar    1  UNL1        0.0986
     31 C         140.1913  142.7433  166.9110 C.ar    1  UNL1        0.0260
     32 C         140.8294  142.1784  168.1455 C.ar    1  UNL1        0.0920
     33 C         140.9553  140.6930  168.3120 C.ar    1  UNL1        0.1028
     34 N         140.4431  139.7725  167.2442 N.ar    1  UNL1       -0.2427
     35 C         139.8051  140.3373  166.0098 C.ar    1  UNL1        0.0949
     36 C         141.3416  143.0989  169.2133 C.3     1  UNL1        0.4201
     37 F         141.8537  144.0195  170.2812 F       1  UNL1       -0.1658
     38 F         140.0884  143.9168  169.1093 F       1  UNL1       -0.1658
     39 F         142.5947  142.2811  169.3173 F       1  UNL1       -0.1658
@<TRIPOS>BOND
     1    12    13    2
     2    13    14    1
     3    14    15    1
     4    15    16    1
     5    16    17   ar
     6    17    18   ar
     7    18    19   ar
     8    19    11    1
     9    11     9    1
    10     9     1    1
    11     1     2    1
    12     2     3    1
    13     3     4    1
    14     4    24    1
    15    24    25    1
    16    25    26    1
    17    26    27   ar
    18    27    28   ar
    19    28    29   ar
    20    29    30   ar
    21    30    31   ar
    22    31    32   ar
    23    32    36    1
    24    36    37    1
    25    36    38    1
    26    36    39    1
    27    32    33   ar
    28    33    34   ar
    29    34    35   ar
    30     4     5    1
    31     5     6    1
    32     4     7    1
    33     7     8    1
    34    19    20   ar
    35    20    21   ar
    36    21    22    1
    37    22    13   am
    38    21    16   ar
    39     6     1    1
    40     8     1    1
    41    35    26   ar
    42    35    30   ar
    43     9    10    1
    44    22    23    1
@<TRIPOS>MOLECULE
*****
 39 44 0 0 0
SMALL
GASTEIGER

@<TRIPOS>ATOM
      1 C         142.2322  144.7764  162.8958 C.3     1  UNL1        0.0700
      2 C         142.8573  144.4985  164.2307 C.3     1  UNL1        0.0193
      3 C         143.9077  143.4356  164.3602 C.3     1  UNL1        0.0286
      4 C         144.3331  142.6506  163.1548 C.3     1  UNL1        0.0932
      5 C         143.7079  142.9285  161.8199 C.3     1  UNL1        0.0286
      6 C         142.6574  143.9915  161.6904 C.3     1  UNL1        0.0193
      7 O         143.7537  143.2231  163.0345 O.3     1  UNL1       -0.3572
      8 C         142.8038  144.1842  162.9174 C.3     1  UNL1        0.1562
      9 N         141.1818  145.8393  162.7663 N.3     1  UNL1       -0.2926
     10 H         141.4486  146.5954  163.3968 H       1  UNL1        0.1236
     11 C         139.7470  145.5158  163.0611 C.3     1  UNL1        0.1152
     12 O         137.7173  139.9992  157.9427 O.2     1  UNL1       -0.2707
     13 C         137.8600  140.4662  159.3610 C.2     1  UNL1        0.2718
     14 C         137.4687  139.5613  160.4915 C.3     1  UNL1        0.2898
     15 O         137.6114  140.0282  161.9098 O.3     1  UNL1       -0.4628
     16 C         138.1453  141.4001  162.1976 C.ar    1  UNL1        0.1708
     17 C         138.2879  141.8671  163.6159 C.ar    1  UNL1        0.0411
     18 C         138.8218  143.2389  163.9038 C.ar    1  UNL1        0.0193
     19 C         139.2131  144.1439  162.7733 C.ar    1  UNL1        0.0765
     20 N         139.0704  143.6770  161.3549 N.ar    1  UNL1       -0.2304
     21 C         138.5365  142.3050  161.0672 C.ar    1  UNL1        0.1682
     22 N         138.3939  141.8380  159.6489 N.am    1  UNL1       -0.2639
     23 H         138.6507  142.4320  158.9069 H       1  UNL1        0.1565
     24 C         145.3835  141.5877  163.2843 C.3     1  UNL1        0.0319
     25 C         145.0342  140.2568  163.8817 C.3     1  UNL1        0.0304
     26 C         143.9339  139.4316  163.2831 C.ar    1  UNL1       -0.0014
     27 C         144.1478  138.7336  161.9726 C.ar    1  UNL1        0.0179
     28 C         143.0476  137.9084  161.3740 C.ar    1  UNL1        0.0986
     29 N         141.7334  137.7810  162.0858 N.ar    1  UNL1       -0.2423
     30 C         141.5194  138.4789  163.3962 C.ar    1  UNL1        0.0986
     31 C         140.2052  138.3516  164.1080 C.ar    1  UNL1        0.0260
     32 C         139.9913  139.0495  165.4184 C.ar    1  UNL1        0.0920
     33 C         141.0915  139.8747  166.0170 C.ar    1  UNL1        0.1028
     34 N         142.4057  140.0021  165.3052 N.ar    1  UNL1       -0.2427
     35 C         142.6197  139.3042  163.9949 C.ar    1  UNL1        0.0949
     36 C         138.6771  138.9221  166.1302 C.3     1  UNL1        0.4201
     37 F         137.3629  138.7948  166.8420 F       1  UNL1       -0.1658
     38 F         138.4863  137.5590  165.5340 F       1  UNL1       -0.1658
     39 F         138.8679  140.2853  166.7264 F       1  UNL1       -0.1658
@<TRIPOS>BOND
     1    12    13    2
     2    13    14    1
     3    14    15    1
     4    15    16    1
     5    16    17   ar
     6    17    18   ar
     7    18    19   ar
     8    19    11    1
     9    11     9    1
    10     9     1    1
    11     1     2    1
    12     2     3    1
    13     3     4    1
    14     4    24    1
    15    24    25    1
    16    25    26    1
    17    26    27   ar
    18    27    28   ar
    19    28    29   ar
    20    29    30   ar
    21    30    31   ar
    22    31    32   ar
    23    32    36    1
    24    36    37    1
    25    36    38    1
    26    36    39    1
    27    32    33   ar
    28    33    34   ar
    29    34    35   ar
    30     4     5    1
    31     5     6    1
    32     4     7    1
    33     7     8    1
    34    19    20   ar
    35    20    21   ar
    36    21    22    1
    37    22    13   am
    38    21    16   ar
    39     6     1    1
    40     8     1    1
    41    35    26   ar
    42    35    30   ar
    43     9    10    1
    44    22    23    1
@<TRIPOS>MOLECULE
*****
 39 44 0 0 0
SMALL
GASTEIGER

@<TRIPOS>ATOM
      1 C         140.3335  138.0046  161.7947 C.3     1  UNL1        0.0700
      2 C         141.1849  138.9113  160.9562 C.3     1  UNL1        0.0193
      3 C         142.5702  139.2684  161.4072 C.3     1  UNL1        0.0286
      4 C         143.1042  138.7188  162.6967 C.3     1  UNL1        0.0932
      5 C         142.2528  137.8120  163.5352 C.3     1  UNL1        0.0286
      6 C         140.8675  137.4550  163.0842 C.3     1  UNL1        0.0193
      7 O         142.3390  138.4948  162.4909 O.3     1  UNL1       -0.3572
      8 C         141.0864  138.1720  162.0832 C.3     1  UNL1        0.1562
      9 N         138.9482  137.6475  161.3437 N.3     1  UNL1       -0.2926
     10 H         138.9562  137.6678  160.3240 H       1  UNL1        0.1236
     11 C         137.7788  138.4774  161.7842 C.3     1  UNL1        0.1152
     12 O         139.0747  146.1622  161.6674 O.2     1  UNL1       -0.2707
     13 C         138.8712  144.8907  162.4367 C.2     1  UNL1        0.2718
     14 C         138.8963  144.9092  163.9363 C.3     1  UNL1        0.2898
     15 O         138.6928  143.6377  164.7056 O.3     1  UNL1       -0.4628
     16 C         138.4643  142.3476  163.9753 C.ar    1  UNL1        0.1708
     17 C         138.2608  141.0761  164.7446 C.ar    1  UNL1        0.0411
     18 C         138.0323  139.7860  164.0143 C.ar    1  UNL1        0.0193
     19 C         138.0073  139.7674  162.5145 C.ar    1  UNL1        0.0765
     20 N         138.2108  141.0390  161.7452 N.ar    1  UNL1       -0.2304
     21 C         138.4393  142.3291  162.4757 C.ar    1  UNL1        0.1682
     22 N         138.6427  143.6006  161.7064 N.am    1  UNL1       -0.2639
     23 H         138.6263  143.5884  160.7221 H       1  UNL1        0.1565
     24 C         144.4895  139.0758  163.1477 C.3     1  UNL1        0.0319
     25 C         144.6852  139.9261  164.3679 C.3     1  UNL1        0.0304
     26 C         143.7958  141.1099  164.6076 C.ar    1  UNL1       -0.0014
     27 C         143.9336  142.3364  163.7550 C.ar    1  UNL1        0.0179
     28 C         143.0442  143.5202  163.9948 C.ar    1  UNL1        0.0986
     29 N         142.0171  143.4776  165.0871 N.ar    1  UNL1       -0.2423
     30 C         141.8793  142.2513  165.9397 C.ar    1  UNL1        0.0986
     31 C         140.8522  142.2087  167.0321 C.ar    1  UNL1        0.0260
     32 C         140.7145  140.9822  167.8847 C.ar    1  UNL1        0.0920
     33 C         141.6039  139.7984  167.6449 C.ar    1  UNL1        0.1028
     34 N         142.6310  139.8410  166.5526 N.ar    1  UNL1       -0.2427
     35 C         142.7687  141.0673  165.7000 C.ar    1  UNL1        0.0949
     36 C         139.6874  140.9397  168.9770 C.3     1  UNL1        0.4201
     37 F         138.6603  140.8971  170.0694 F       1  UNL1       -0.1658
     38 F         140.3733  142.0817  169.6665 F       1  UNL1       -0.1658
     39 F         139.0015  139.7977  168.2876 F       1  UNL1       -0.1658
@<TRIPOS>BOND
     1    12    13    2
     2    13    14    1
     3    14    15    1
     4    15    16    1
     5    16    17   ar
     6    17    18   ar
     7    18    19   ar
     8    19    11    1
     9    11     9    1
    10     9     1    1
    11     1     2    1
    12     2     3    1
    13     3     4    1
    14     4    24    1
    15    24    25    1
    16    25    26    1
    17    26    27   ar
    18    27    28   ar
    19    28    29   ar
    20    29    30   ar
    21    30    31   ar
    22    31    32   ar
    23    32    36    1
    24    36    37    1
    25    36    38    1
    26    36    39    1
    27    32    33   ar
    28    33    34   ar
    29    34    35   ar
    30     4     5    1
    31     5     6    1
    32     4     7    1
    33     7     8    1
    34    19    20   ar
    35    20    21   ar
    36    21    22    1
    37    22    13   am
    38    21    16   ar
    39     6     1    1
    40     8     1    1
    41    35    26   ar
    42    35    30   ar
    43     9    10    1
    44    22    23    1
@<TRIPOS>MOLECULE
*****
 39 44 0 0 0
SMALL
GASTEIGER

@<TRIPOS>ATOM
      1 C         141.8846  137.7392  162.6072 C.3     1  UNL1        0.0700
      2 C         142.1565  137.6666  164.0806 C.3     1  UNL1        0.0193
      3 C         141.0153  137.6470  165.0538 C.3     1  UNL1        0.0286
      4 C         139.6021  137.6999  164.5536 C.3     1  UNL1        0.0932
      5 C         139.3302  137.7724  163.0803 C.3     1  UNL1        0.0286
      6 C         140.4715  137.7921  162.1071 C.3     1  UNL1        0.0193
      7 O         140.1946  137.7131  163.9821 O.3     1  UNL1       -0.3572
      8 C         141.2266  137.7309  163.1021 C.3     1  UNL1        0.1562
      9 N         143.0259  137.7589  161.6340 N.3     1  UNL1       -0.2926
     10 H         143.8370  137.3813  162.1238 H       1  UNL1        0.1236
     11 C         143.4593  139.0534  161.0124 C.3     1  UNL1        0.1152
     12 O         140.3340  146.0871  162.2410 O.2     1  UNL1       -0.2707
     13 C         141.3098  145.0143  162.6242 C.2     1  UNL1        0.2718
     14 C         142.2197  145.2132  163.7999 C.3     1  UNL1        0.2898
     15 O         143.1955  144.1404  164.1831 O.3     1  UNL1       -0.4628
     16 C         143.2615  142.8686  163.3904 C.ar    1  UNL1        0.1708
     17 C         144.2373  141.7958  163.7736 C.ar    1  UNL1        0.0411
     18 C         144.3032  140.5241  162.9809 C.ar    1  UNL1        0.0193
     19 C         143.3933  140.3251  161.8051 C.ar    1  UNL1        0.0765
     20 N         142.4175  141.3980  161.4219 N.ar    1  UNL1       -0.2304
     21 C         142.3516  142.6698  162.2146 C.ar    1  UNL1        0.1682
     22 N         141.3758  143.7426  161.8315 N.am    1  UNL1       -0.2639
     23 H         140.7786  143.6120  161.0598 H       1  UNL1        0.1565
     24 C         138.4609  137.6802  165.5268 C.3     1  UNL1        0.0319
     25 C         138.0192  138.9508  166.1906 C.3     1  UNL1        0.0304
     26 C         138.6962  140.2466  165.8554 C.ar    1  UNL1       -0.0014
     27 C         138.1907  141.0848  164.7186 C.ar    1  UNL1        0.0179
     28 C         138.8677  142.3807  164.3834 C.ar    1  UNL1        0.0986
     29 N         140.0501  142.8384  165.1848 N.ar    1  UNL1       -0.2423
     30 C         140.5555  142.0004  166.3215 C.ar    1  UNL1        0.0986
     31 C         141.7380  142.4582  167.1230 C.ar    1  UNL1        0.0260
     32 C         142.2434  141.6200  168.2597 C.ar    1  UNL1        0.0920
     33 C         141.5665  140.3241  168.5949 C.ar    1  UNL1        0.1028
     34 N         140.3840  139.8664  167.7935 N.ar    1  UNL1       -0.2427
     35 C         139.8786  140.7044  166.6568 C.ar    1  UNL1        0.0949
     36 C         143.4258  142.0778  169.0611 C.3     1  UNL1        0.4201
     37 F         144.6083  142.5356  169.8626 F       1  UNL1       -0.1658
     38 F         143.9403  142.8323  167.8712 F       1  UNL1       -0.1658
     39 F         142.9114  141.3232  170.2511 F       1  UNL1       -0.1658
@<TRIPOS>BOND
     1    12    13    2
     2    13    14    1
     3    14    15    1
     4    15    16    1
     5    16    17   ar
     6    17    18   ar
     7    18    19   ar
     8    19    11    1
     9    11     9    1
    10     9     1    1
    11     1     2    1
    12     2     3    1
    13     3     4    1
    14     4    24    1
    15    24    25    1
    16    25    26    1
    17    26    27   ar
    18    27    28   ar
    19    28    29   ar
    20    29    30   ar
    21    30    31   ar
    22    31    32   ar
    23    32    36    1
    24    36    37    1
    25    36    38    1
    26    36    39    1
    27    32    33   ar
    28    33    34   ar
    29    34    35   ar
    30     4     5    1
    31     5     6    1
    32     4     7    1
    33     7     8    1
    34    19    20   ar
    35    20    21   ar
    36    21    22    1
    37    22    13   am
    38    21    16   ar
    39     6     1    1
    40     8     1    1
    41    35    26   ar
    42    35    30   ar
    43     9    10    1
    44    22    23    1
@<TRIPOS>MOLECULE
*****
 39 44 0 0 0
SMALL
GASTEIGER

@<TRIPOS>ATOM
      1 C         137.7228  141.8636  163.1349 C.3     1  UNL1        0.0700
      2 C         137.7932  140.6530  162.2521 C.3     1  UNL1        0.0193
      3 C         138.1678  139.3218  162.8331 C.3     1  UNL1        0.0286
      4 C         138.4719  139.2012  164.2970 C.3     1  UNL1        0.0932
      5 C         138.4015  140.4118  165.1799 C.3     1  UNL1        0.0286
      6 C         138.0269  141.7431  164.5988 C.3     1  UNL1        0.0193
      7 O         138.2712  139.9517  164.0242 O.3     1  UNL1       -0.3572
      8 C         137.9326  141.1554  163.4989 C.3     1  UNL1        0.1562
      9 N         137.3483  143.1948  162.5539 N.3     1  UNL1       -0.2926
     10 H         137.1998  143.0490  161.5554 H       1  UNL1        0.1236
     11 C         138.2825  144.3609  162.6870 C.3     1  UNL1        0.1152
     12 O         144.0025  140.7657  158.8004 O.2     1  UNL1       -0.2707
     13 C         143.5559  141.7932  159.7978 C.2     1  UNL1        0.2718
     14 C         144.5694  142.6498  160.4971 C.3     1  UNL1        0.2898
     15 O         144.1229  143.6773  161.4945 O.3     1  UNL1       -0.4628
     16 C         142.6628  143.8482  161.7927 C.ar    1  UNL1        0.1708
     17 C         142.2162  144.8757  162.7901 C.ar    1  UNL1        0.0411
     18 C         140.7561  145.0466  163.0882 C.ar    1  UNL1        0.0193
     19 C         139.7425  144.1900  162.3889 C.ar    1  UNL1        0.0765
     20 N         140.1891  143.1625  161.3915 N.ar    1  UNL1       -0.2304
     21 C         141.6493  142.9916  161.0934 C.ar    1  UNL1        0.1682
     22 N         142.0959  141.9641  160.0959 N.am    1  UNL1       -0.2639
     23 H         141.4307  141.4019  159.6369 H       1  UNL1        0.1565
     24 C         138.8464  137.8700  164.8780 C.3     1  UNL1        0.0319
     25 C         140.2790  137.4253  164.8720 C.3     1  UNL1        0.0304
     26 C         141.2586  138.0640  163.9326 C.ar    1  UNL1       -0.0014
     27 C         141.4680  137.4896  162.5628 C.ar    1  UNL1        0.0179
     28 C         142.4476  138.1283  161.6235 C.ar    1  UNL1        0.0986
     29 N         143.2178  139.3414  162.0538 N.ar    1  UNL1       -0.2423
     30 C         143.0084  139.9158  163.4235 C.ar    1  UNL1        0.0986
     31 C         143.7786  141.1289  163.8539 C.ar    1  UNL1        0.0260
     32 C         143.5691  141.7033  165.2237 C.ar    1  UNL1        0.0920
     33 C         142.5895  141.0646  166.1630 C.ar    1  UNL1        0.1028
     34 N         141.8194  139.8515  165.7327 N.ar    1  UNL1       -0.2427
     35 C         142.0288  139.2771  164.3630 C.ar    1  UNL1        0.0949
     36 C         144.3393  142.9164  165.6540 C.3     1  UNL1        0.4201
     37 F         145.1095  144.1295  166.0844 F       1  UNL1       -0.1658
     38 F         144.9289  143.0297  164.2794 F       1  UNL1       -0.1658
     39 F         143.7497  142.8031  167.0286 F       1  UNL1       -0.1658
@<TRIPOS>BOND
     1    12    13    2
     2    13    14    1
     3    14    15    1
     4    15    16    1
     5    16    17   ar
     6    17    18   ar
     7    18    19   ar
     8    19    11    1
     9    11     9    1
    10     9     1    1
    11     1     2    1
    12     2     3    1
    13     3     4    1
    14     4    24    1
    15    24    25    1
    16    25    26    1
    17    26    27   ar
    18    27    28   ar
    19    28    29   ar
    20    29    30   ar
    21    30    31   ar
    22    31    32   ar
    23    32    36    1
    24    36    37    1
    25    36    38    1
    26    36    39    1
    27    32    33   ar
    28    33    34   ar
    29    34    35   ar
    30     4     5    1
    31     5     6    1
    32     4     7    1
    33     7     8    1
    34    19    20   ar
    35    20    21   ar
    36    21    22    1
    37    22    13   am
    38    21    16   ar
    39     6     1    1
    40     8     1    1
    41    35    26   ar
    42    35    30   ar
    43     9    10    1
    44    22    23    1
@<TRIPOS>MOLECULE
*****
 39 44 0 0 0
SMALL
GASTEIGER

@<TRIPOS>ATOM
      1 C         137.9187  143.1216  162.9823 C.3     1  UNL1        0.0700
      2 C         138.0975  141.9927  162.0110 C.3     1  UNL1        0.0193
      3 C         138.2946  140.5937  162.5150 C.3     1  UNL1        0.0286
      4 C         138.3129  140.3237  163.9904 C.3     1  UNL1        0.0932
      5 C         138.1341  141.4526  164.9618 C.3     1  UNL1        0.0286
      6 C         137.9370  142.8516  164.4576 C.3     1  UNL1        0.0193
      7 O         138.2018  141.1068  163.7618 O.3     1  UNL1       -0.3572
      8 C         138.0236  142.3718  163.3060 C.3     1  UNL1        0.1562
      9 N         137.7215  144.5205  162.4783 N.3     1  UNL1       -0.2926
     10 H         137.3869  144.4431  161.5178 H       1  UNL1        0.1236
     11 C         138.8742  145.4803  162.4591 C.3     1  UNL1        0.1152
     12 O         144.5218  141.8642  158.4869 O.2     1  UNL1       -0.2707
     13 C         144.0449  142.5520  159.7317 C.2     1  UNL1        0.2718
     14 C         144.9736  142.7223  160.8972 C.3     1  UNL1        0.2898
     15 O         144.4968  143.4101  162.1420 O.3     1  UNL1       -0.4628
     16 C         143.0911  143.9276  162.2213 C.ar    1  UNL1        0.1708
     17 C         142.6142  144.6155  163.4661 C.ar    1  UNL1        0.0411
     18 C         141.2086  145.1330  163.5454 C.ar    1  UNL1        0.0193
     19 C         140.2798  144.9627  162.3798 C.ar    1  UNL1        0.0765
     20 N         140.7567  144.2749  161.1350 N.ar    1  UNL1       -0.2304
     21 C         142.1624  143.7574  161.0558 C.ar    1  UNL1        0.1682
     22 N         142.6393  143.0696  159.8110 N.am    1  UNL1       -0.2639
     23 H         142.0297  142.9578  159.0460 H       1  UNL1        0.1565
     24 C         138.5101  138.9248  164.4944 C.3     1  UNL1        0.0319
     25 C         139.8630  138.4813  164.9665 C.3     1  UNL1        0.0304
     26 C         141.0372  139.4081  164.8552 C.ar    1  UNL1       -0.0014
     27 C         141.8041  139.4960  163.5691 C.ar    1  UNL1        0.0179
     28 C         142.9782  140.4228  163.4578 C.ar    1  UNL1        0.0986
     29 N         143.3854  141.2618  164.6326 N.ar    1  UNL1       -0.2423
     30 C         142.6186  141.1740  165.9187 C.ar    1  UNL1        0.0986
     31 C         143.0259  142.0130  167.0936 C.ar    1  UNL1        0.0260
     32 C         142.2589  141.9251  168.3797 C.ar    1  UNL1        0.0920
     33 C         141.0848  140.9983  168.4910 C.ar    1  UNL1        0.1028
     34 N         140.6776  140.1593  167.3162 N.ar    1  UNL1       -0.2427
     35 C         141.4444  140.2471  166.0301 C.ar    1  UNL1        0.0949
     36 C         142.6662  142.7641  169.5546 C.3     1  UNL1        0.4201
     37 F         143.0735  143.6031  170.7294 F       1  UNL1       -0.1658
     38 F         144.0148  142.1074  169.5561 F       1  UNL1       -0.1658
     39 F         141.3176  143.4208  169.5531 F       1  UNL1       -0.1658
@<TRIPOS>BOND
     1    12    13    2
     2    13    14    1
     3    14    15    1
     4    15    16    1
     5    16    17   ar
     6    17    18   ar
     7    18    19   ar
     8    19    11    1
     9    11     9    1
    10     9     1    1
    11     1     2    1
    12     2     3    1
    13     3     4    1
    14     4    24    1
    15    24    25    1
    16    25    26    1
    17    26    27   ar
    18    27    28   ar
    19    28    29   ar
    20    29    30   ar
    21    30    31   ar
    22    31    32   ar
    23    32    36    1
    24    36    37    1
    25    36    38    1
    26    36    39    1
    27    32    33   ar
    28    33    34   ar
    29    34    35   ar
    30     4     5    1
    31     5     6    1
    32     4     7    1
    33     7     8    1
    34    19    20   ar
    35    20    21   ar
    36    21    22    1
    37    22    13   am
    38    21    16   ar
    39     6     1    1
    40     8     1    1
    41    35    26   ar
    42    35    30   ar
    43     9    10    1
    44    22    23    1
