@<TRIPOS>MOLECULE
*****
 30 33 0 0 0
SMALL
GASTEIGER

@<TRIPOS>ATOM
      1 C         139.8407  139.2252  158.9273 C.2     1  UNL1       -0.0088
      2 C         139.4273  138.4460  160.1405 C.2     1  UNL1       -0.0032
      3 C         139.3673  139.1191  161.4797 C.2     1  UNL1       -0.0003
      4 C         140.2953  138.6897  162.5772 C.2     1  UNL1       -0.0000
      5 C         140.2354  139.3628  163.9163 C.ar    1  UNL1       -0.0000
      6 C         139.1989  138.9484  164.9183 C.ar    1  UNL1       -0.0000
      7 C         139.1390  139.6215  166.2574 C.ar    1  UNL1        0.0000
      8 C         140.1156  140.7090  166.5946 C.ar    1  UNL1        0.0000
      9 C         141.1521  141.1233  165.5927 C.ar    1  UNL1        0.0000
     10 C         141.2120  140.4502  164.2535 C.ar    1  UNL1       -0.0000
     11 C         140.0557  141.3821  167.9338 C.ar    1  UNL1        0.0000
     12 C         139.5589  140.6272  169.1310 C.ar    1  UNL1        0.0000
     13 C         139.4990  141.3004  170.4702 C.ar    1  UNL1        0.0000
     14 C         139.9358  142.7283  170.6121 C.ar    1  UNL1        0.0000
     15 C         140.4326  143.4831  169.4149 C.ar    1  UNL1        0.0000
     16 C         140.4925  142.8101  168.0757 C.ar    1  UNL1        0.0000
     17 C         139.9007  138.5522  157.5882 C.3     1  UNL1        0.0992
     18 C         141.1814  136.6731  156.3316 C.3     1  UNL1        0.0902
     19 N         141.1905  137.9589  157.1040 N.3     1  UNL1       -0.2639
     20 C         142.4895  138.6514  157.3923 C.3     1  UNL1        0.0995
     21 C         142.9732  138.7799  158.8064 C.ar    1  UNL1       -0.0031
     22 C         142.9572  137.5872  159.7158 C.ar    1  UNL1       -0.0030
     23 C         143.4410  137.7156  161.1298 C.ar    1  UNL1       -0.0016
     24 C         143.9407  139.0369  161.6345 C.ar    1  UNL1        0.0119
     25 C         143.9567  140.2296  160.7250 C.ar    1  UNL1        0.1342
     26 C         143.4730  140.1011  159.3109 C.ar    1  UNL1        0.0337
     27 O         144.4565  141.5508  161.2295 O.3     1  UNL1       -0.4758
     28 C         144.9402  141.6793  162.6435 C.3     1  UNL1        0.2057
     29 C         144.9242  140.4866  163.5530 C.3     1  UNL1        0.0521
     30 C         144.4245  139.1654  163.0485 C.3     1  UNL1        0.0333
@<TRIPOS>BOND
     1    18    19    1
     2    19    17    1
     3    17     1    1
     4     1     2    2
     5     2     3    1
     6     3     4    2
     7     4     5    1
     8     5     6   ar
     9     6     7   ar
    10     7     8   ar
    11     8    11    1
    12    11    12   ar
    13    12    13   ar
    14    13    14   ar
    15    14    15   ar
    16    15    16   ar
    17     8     9   ar
    18     9    10   ar
    19    19    20    1
    20    20    21    1
    21    21    22   ar
    22    22    23   ar
    23    23    24   ar
    24    24    25   ar
    25    25    26   ar
    26    25    27    1
    27    27    28    1
    28    28    29    1
    29    29    30    1
    30    10     5   ar
    31    26    21   ar
    32    16    11   ar
    33    30    24    1
@<TRIPOS>MOLECULE
*****
 30 33 0 0 0
SMALL
GASTEIGER

@<TRIPOS>ATOM
      1 C         141.2350  145.0585  158.3500 C.2     1  UNL1       -0.0088
      2 C         140.3279  145.5359  159.4451 C.2     1  UNL1       -0.0032
      3 C         140.2492  144.7784  160.7374 C.2     1  UNL1       -0.0003
      4 C         140.5269  145.4779  162.0349 C.2     1  UNL1       -0.0000
      5 C         140.4482  144.7205  163.3272 C.ar    1  UNL1       -0.0000
      6 C         141.5896  143.8464  163.7550 C.ar    1  UNL1       -0.0000
      7 C         141.5109  143.0889  165.0472 C.ar    1  UNL1        0.0000
      8 C         140.2907  143.2055  165.9118 C.ar    1  UNL1        0.0000
      9 C         139.1492  144.0796  165.4841 C.ar    1  UNL1        0.0000
     10 C         139.2279  144.8371  164.1917 C.ar    1  UNL1       -0.0000
     11 C         140.2119  142.4480  167.2041 C.ar    1  UNL1        0.0000
     12 C         140.3799  143.1701  168.5081 C.ar    1  UNL1        0.0000
     13 C         140.3012  142.4125  169.8004 C.ar    1  UNL1        0.0000
     14 C         140.0545  140.9330  169.7887 C.ar    1  UNL1        0.0000
     15 C         139.8865  140.2110  168.4846 C.ar    1  UNL1        0.0000
     16 C         139.9652  140.9685  167.1924 C.ar    1  UNL1        0.0000
     17 C         141.3138  145.8160  157.0577 C.3     1  UNL1        0.0992
     18 C         139.3003  144.4613  156.1300 C.3     1  UNL1        0.0902
     19 N         140.2958  145.5736  155.9830 N.3     1  UNL1       -0.2639
     20 C         140.2733  146.4436  154.7614 C.3     1  UNL1        0.0995
     21 C         139.8083  147.8662  154.8621 C.ar    1  UNL1       -0.0031
     22 C         138.8716  148.2731  155.9608 C.ar    1  UNL1       -0.0030
     23 C         138.4066  149.6956  156.0616 C.ar    1  UNL1       -0.0016
     24 C         138.8784  150.7114  155.0637 C.ar    1  UNL1        0.0119
     25 C         139.8151  150.3045  153.9651 C.ar    1  UNL1        0.1342
     26 C         140.2801  148.8819  153.8643 C.ar    1  UNL1        0.0337
     27 O         140.2869  151.3202  152.9672 O.3     1  UNL1       -0.4758
     28 C         139.8219  152.7428  153.0680 C.3     1  UNL1        0.2057
     29 C         138.8852  153.1496  154.1667 C.3     1  UNL1        0.0521
     30 C         138.4134  152.1339  155.1645 C.3     1  UNL1        0.0333
@<TRIPOS>BOND
     1    18    19    1
     2    19    17    1
     3    17     1    1
     4     1     2    2
     5     2     3    1
     6     3     4    2
     7     4     5    1
     8     5     6   ar
     9     6     7   ar
    10     7     8   ar
    11     8    11    1
    12    11    12   ar
    13    12    13   ar
    14    13    14   ar
    15    14    15   ar
    16    15    16   ar
    17     8     9   ar
    18     9    10   ar
    19    19    20    1
    20    20    21    1
    21    21    22   ar
    22    22    23   ar
    23    23    24   ar
    24    24    25   ar
    25    25    26   ar
    26    25    27    1
    27    27    28    1
    28    28    29    1
    29    29    30    1
    30    10     5   ar
    31    26    21   ar
    32    16    11   ar
    33    30    24    1
@<TRIPOS>MOLECULE
*****
 30 33 0 0 0
SMALL
GASTEIGER

@<TRIPOS>ATOM
      1 C         141.7921  139.5831  159.2644 C.2     1  UNL1       -0.0088
      2 C         141.6344  138.6682  160.4426 C.2     1  UNL1       -0.0032
      3 C         141.9085  139.1749  161.8276 C.2     1  UNL1       -0.0003
      4 C         141.0156  140.2155  162.4358 C.2     1  UNL1       -0.0000
      5 C         141.2897  140.7223  163.8207 C.ar    1  UNL1       -0.0000
      6 C         141.7008  139.7667  164.9014 C.ar    1  UNL1       -0.0000
      7 C         141.9748  140.2734  166.2863 C.ar    1  UNL1        0.0000
      8 C         141.8377  141.7358  166.5906 C.ar    1  UNL1        0.0000
      9 C         141.4266  142.6915  165.5100 C.ar    1  UNL1        0.0000
     10 C         141.1526  142.1846  164.1250 C.ar    1  UNL1       -0.0000
     11 C         142.1118  142.2426  167.9756 C.ar    1  UNL1        0.0000
     12 C         141.0160  142.8935  168.7665 C.ar    1  UNL1        0.0000
     13 C         141.2901  143.4002  170.1515 C.ar    1  UNL1        0.0000
     14 C         142.6599  143.2561  170.7455 C.ar    1  UNL1        0.0000
     15 C         143.7556  142.6051  169.9545 C.ar    1  UNL1        0.0000
     16 C         143.4816  142.0984  168.5696 C.ar    1  UNL1        0.0000
     17 C         141.5181  139.0764  157.8794 C.3     1  UNL1        0.0992
     18 C         139.6263  137.7635  156.6764 C.3     1  UNL1        0.0902
     19 N         140.1079  139.0011  157.3737 N.3     1  UNL1       -0.2639
     20 C         139.1793  140.1634  157.5653 C.3     1  UNL1        0.0995
     21 C         138.7323  140.5468  158.9449 C.ar    1  UNL1       -0.0031
     22 C         138.0916  139.5250  159.8367 C.ar    1  UNL1       -0.0030
     23 C         137.6446  139.9083  161.2163 C.ar    1  UNL1       -0.0016
     24 C         137.8384  141.3135  161.7041 C.ar    1  UNL1        0.0119
     25 C         138.4792  142.3353  160.8123 C.ar    1  UNL1        0.1342
     26 C         138.9261  141.9520  159.4327 C.ar    1  UNL1        0.0337
     27 O         138.6730  143.7405  161.3001 O.3     1  UNL1       -0.4758
     28 C         138.2260  144.1238  162.6797 C.3     1  UNL1        0.2057
     29 C         137.5852  143.1020  163.5715 C.3     1  UNL1        0.0521
     30 C         137.3914  141.6968  163.0837 C.3     1  UNL1        0.0333
@<TRIPOS>BOND
     1    18    19    1
     2    19    17    1
     3    17     1    1
     4     1     2    2
     5     2     3    1
     6     3     4    2
     7     4     5    1
     8     5     6   ar
     9     6     7   ar
    10     7     8   ar
    11     8    11    1
    12    11    12   ar
    13    12    13   ar
    14    13    14   ar
    15    14    15   ar
    16    15    16   ar
    17     8     9   ar
    18     9    10   ar
    19    19    20    1
    20    20    21    1
    21    21    22   ar
    22    22    23   ar
    23    23    24   ar
    24    24    25   ar
    25    25    26   ar
    26    25    27    1
    27    27    28    1
    28    28    29    1
    29    29    30    1
    30    10     5   ar
    31    26    21   ar
    32    16    11   ar
    33    30    24    1
@<TRIPOS>MOLECULE
*****
 30 33 0 0 0
SMALL
GASTEIGER

@<TRIPOS>ATOM
      1 C         141.9056  138.1683  158.1112 C.2     1  UNL1       -0.0088
      2 C         142.8970  138.0866  159.2340 C.2     1  UNL1       -0.0032
      3 C         142.4839  138.4573  160.6276 C.2     1  UNL1       -0.0003
      4 C         143.3054  138.0054  161.7985 C.2     1  UNL1       -0.0000
      5 C         142.8924  138.3760  163.1921 C.ar    1  UNL1       -0.0000
      6 C         143.8228  139.1645  164.0654 C.ar    1  UNL1       -0.0000
      7 C         143.4098  139.5351  165.4589 C.ar    1  UNL1        0.0000
      8 C         142.0664  139.1172  165.9793 C.ar    1  UNL1        0.0000
      9 C         141.1360  138.3287  165.1060 C.ar    1  UNL1        0.0000
     10 C         141.5491  137.9581  163.7123 C.ar    1  UNL1       -0.0000
     11 C         141.6534  139.4878  167.3728 C.ar    1  UNL1        0.0000
     12 C         142.6283  139.3532  168.5048 C.ar    1  UNL1        0.0000
     13 C         142.2153  139.7238  169.8984 C.ar    1  UNL1        0.0000
     14 C         140.8274  140.2291  170.1600 C.ar    1  UNL1        0.0000
     15 C         139.8525  140.3637  169.0280 C.ar    1  UNL1        0.0000
     16 C         140.2655  139.9931  167.6344 C.ar    1  UNL1        0.0000
     17 C         142.3186  137.7977  156.7177 C.3     1  UNL1        0.0992
     18 C         139.9163  137.1911  155.9361 C.3     1  UNL1        0.0902
     19 N         141.3998  136.9851  155.8542 N.3     1  UNL1       -0.2639
     20 C         141.9645  135.9666  154.9089 C.3     1  UNL1        0.0995
     21 C         142.2610  134.5778  155.3922 C.ar    1  UNL1       -0.0031
     22 C         141.3803  133.4360  154.9790 C.ar    1  UNL1       -0.0030
     23 C         141.6767  132.0473  155.4622 C.ar    1  UNL1       -0.0016
     24 C         142.8538  131.8003  156.3587 C.ar    1  UNL1        0.0119
     25 C         143.7344  132.9422  156.7719 C.ar    1  UNL1        0.1342
     26 C         143.4380  134.3309  156.2886 C.ar    1  UNL1        0.0337
     27 O         144.9114  132.6952  157.6683 O.3     1  UNL1       -0.4758
     28 C         145.2078  131.3065  158.1515 C.3     1  UNL1        0.2057
     29 C         144.3272  130.1647  157.7384 C.3     1  UNL1        0.0521
     30 C         143.1501  130.4116  156.8419 C.3     1  UNL1        0.0333
@<TRIPOS>BOND
     1    18    19    1
     2    19    17    1
     3    17     1    1
     4     1     2    2
     5     2     3    1
     6     3     4    2
     7     4     5    1
     8     5     6   ar
     9     6     7   ar
    10     7     8   ar
    11     8    11    1
    12    11    12   ar
    13    12    13   ar
    14    13    14   ar
    15    14    15   ar
    16    15    16   ar
    17     8     9   ar
    18     9    10   ar
    19    19    20    1
    20    20    21    1
    21    21    22   ar
    22    22    23   ar
    23    23    24   ar
    24    24    25   ar
    25    25    26   ar
    26    25    27    1
    27    27    28    1
    28    28    29    1
    29    29    30    1
    30    10     5   ar
    31    26    21   ar
    32    16    11   ar
    33    30    24    1
@<TRIPOS>MOLECULE
*****
 30 33 0 0 0
SMALL
GASTEIGER

@<TRIPOS>ATOM
      1 C         139.4980  140.4221  167.9389 C.2     1  UNL1       -0.0088
      2 C         138.7868  139.2974  167.2467 C.2     1  UNL1       -0.0032
      3 C         138.6317  139.3134  165.7547 C.2     1  UNL1       -0.0003
      4 C         139.8453  139.2734  164.8741 C.2     1  UNL1       -0.0000
      5 C         139.6903  139.2894  163.3823 C.ar    1  UNL1       -0.0000
      6 C         139.0344  138.1352  162.6839 C.ar    1  UNL1       -0.0000
      7 C         138.8794  138.1512  161.1921 C.ar    1  UNL1        0.0000
      8 C         139.3803  139.3215  160.3985 C.ar    1  UNL1        0.0000
      9 C         140.0361  140.4757  161.0968 C.ar    1  UNL1        0.0000
     10 C         140.1911  140.4596  162.5887 C.ar    1  UNL1       -0.0000
     11 C         139.2252  139.3375  158.9066 C.ar    1  UNL1        0.0000
     12 C         139.8433  138.2516  158.0766 C.ar    1  UNL1        0.0000
     13 C         139.6882  138.2676  156.5847 C.ar    1  UNL1        0.0000
     14 C         138.9152  139.3695  155.9228 C.ar    1  UNL1        0.0000
     15 C         138.2971  140.4554  156.7528 C.ar    1  UNL1        0.0000
     16 C         138.4522  140.4394  158.2447 C.ar    1  UNL1        0.0000
     17 C         139.6530  140.4061  169.4307 C.3     1  UNL1        0.0992
     18 C         141.1005  141.6781  171.1733 C.3     1  UNL1        0.0902
     19 N         140.9896  140.6915  170.0489 N.3     1  UNL1       -0.2639
     20 C         142.2152  139.9904  169.5427 C.3     1  UNL1        0.0995
     21 C         142.6220  140.1342  168.1061 C.ar    1  UNL1       -0.0031
     22 C         142.9318  138.9151  167.2887 C.ar    1  UNL1       -0.0030
     23 C         143.3385  139.0588  165.8522 C.ar    1  UNL1       -0.0016
     24 C         143.4356  140.4216  165.2328 C.ar    1  UNL1        0.0119
     25 C         143.1258  141.6406  166.0501 C.ar    1  UNL1        0.1342
     26 C         142.7190  141.4969  167.4868 C.ar    1  UNL1        0.0337
     27 O         143.2228  143.0033  165.4308 O.3     1  UNL1       -0.4758
     28 C         143.6296  143.1470  163.9943 C.3     1  UNL1        0.2057
     29 C         143.9394  141.9280  163.1769 C.3     1  UNL1        0.0521
     30 C         143.8424  140.5653  163.7962 C.3     1  UNL1        0.0333
@<TRIPOS>BOND
     1    18    19    1
     2    19    17    1
     3    17     1    1
     4     1     2    2
     5     2     3    1
     6     3     4    2
     7     4     5    1
     8     5     6   ar
     9     6     7   ar
    10     7     8   ar
    11     8    11    1
    12    11    12   ar
    13    12    13   ar
    14    13    14   ar
    15    14    15   ar
    16    15    16   ar
    17     8     9   ar
    18     9    10   ar
    19    19    20    1
    20    20    21    1
    21    21    22   ar
    22    22    23   ar
    23    23    24   ar
    24    24    25   ar
    25    25    26   ar
    26    25    27    1
    27    27    28    1
    28    28    29    1
    29    29    30    1
    30    10     5   ar
    31    26    21   ar
    32    16    11   ar
    33    30    24    1
@<TRIPOS>MOLECULE
*****
 30 33 0 0 0
SMALL
GASTEIGER

@<TRIPOS>ATOM
      1 C         139.4333  140.5003  168.1840 C.2     1  UNL1       -0.0088
      2 C         139.0345  139.3666  167.2864 C.2     1  UNL1       -0.0032
      3 C         138.7900  139.6154  165.8274 C.2     1  UNL1       -0.0003
      4 C         139.5745  140.6701  165.1047 C.2     1  UNL1       -0.0000
      5 C         139.3300  140.9189  163.6459 C.ar    1  UNL1       -0.0000
      6 C         140.4818  141.2176  162.7326 C.ar    1  UNL1       -0.0000
      7 C         140.2374  141.4665  161.2738 C.ar    1  UNL1        0.0000
      8 C         138.8410  141.4167  160.7281 C.ar    1  UNL1        0.0000
      9 C         137.6891  141.1180  161.6414 C.ar    1  UNL1        0.0000
     10 C         137.9337  140.8691  163.1003 C.ar    1  UNL1       -0.0000
     11 C         138.5965  141.6656  159.2693 C.ar    1  UNL1        0.0000
     12 C         137.9008  140.6289  158.4379 C.ar    1  UNL1        0.0000
     13 C         137.6563  140.8778  156.9790 C.ar    1  UNL1        0.0000
     14 C         138.1075  142.1634  156.3516 C.ar    1  UNL1        0.0000
     15 C         138.8032  143.2001  157.1830 C.ar    1  UNL1        0.0000
     16 C         139.0476  142.9512  158.6418 C.ar    1  UNL1        0.0000
     17 C         139.6779  140.2515  169.6428 C.3     1  UNL1        0.0992
     18 C         141.2987  141.1599  171.4587 C.3     1  UNL1        0.0902
     19 N         141.0641  140.3744  170.2026 N.3     1  UNL1       -0.2639
     20 C         142.2156  139.7118  169.5063 C.3     1  UNL1        0.0995
     21 C         142.6278  140.1682  168.1381 C.ar    1  UNL1       -0.0031
     22 C         142.8275  141.6292  167.8633 C.ar    1  UNL1       -0.0030
     23 C         143.2397  142.0856  166.4952 C.ar    1  UNL1       -0.0016
     24 C         143.4522  141.0809  165.4017 C.ar    1  UNL1        0.0119
     25 C         143.2525  139.6199  165.6765 C.ar    1  UNL1        0.1342
     26 C         142.8403  139.1635  167.0447 C.ar    1  UNL1        0.0337
     27 O         143.4650  138.6152  164.5832 O.3     1  UNL1       -0.4758
     28 C         143.8771  139.0715  163.2151 C.3     1  UNL1        0.2057
     29 C         144.0768  140.5326  162.9403 C.3     1  UNL1        0.0521
     30 C         143.8644  141.5372  164.0336 C.3     1  UNL1        0.0333
@<TRIPOS>BOND
     1    18    19    1
     2    19    17    1
     3    17     1    1
     4     1     2    2
     5     2     3    1
     6     3     4    2
     7     4     5    1
     8     5     6   ar
     9     6     7   ar
    10     7     8   ar
    11     8    11    1
    12    11    12   ar
    13    12    13   ar
    14    13    14   ar
    15    14    15   ar
    16    15    16   ar
    17     8     9   ar
    18     9    10   ar
    19    19    20    1
    20    20    21    1
    21    21    22   ar
    22    22    23   ar
    23    23    24   ar
    24    24    25   ar
    25    25    26   ar
    26    25    27    1
    27    27    28    1
    28    28    29    1
    29    29    30    1
    30    10     5   ar
    31    26    21   ar
    32    16    11   ar
    33    30    24    1
@<TRIPOS>MOLECULE
*****
 30 33 0 0 0
SMALL
GASTEIGER

@<TRIPOS>ATOM
      1 C         143.7264  141.6102  159.4416 C.2     1  UNL1       -0.0088
      2 C         144.3530  142.5269  160.4501 C.2     1  UNL1       -0.0032
      3 C         144.0489  142.3570  161.9091 C.2     1  UNL1       -0.0003
      4 C         142.7570  142.8722  162.4709 C.2     1  UNL1       -0.0000
      5 C         142.4529  142.7023  163.9299 C.ar    1  UNL1       -0.0000
      6 C         141.0307  142.7183  164.4064 C.ar    1  UNL1       -0.0000
      7 C         140.7266  142.5483  165.8654 C.ar    1  UNL1        0.0000
      8 C         141.8447  142.3624  166.8479 C.ar    1  UNL1        0.0000
      9 C         143.2669  142.3463  166.3714 C.ar    1  UNL1        0.0000
     10 C         143.5710  142.5163  164.9123 C.ar    1  UNL1       -0.0000
     11 C         141.5406  142.1924  168.3068 C.ar    1  UNL1        0.0000
     12 C         142.2917  141.1773  169.1163 C.ar    1  UNL1        0.0000
     13 C         141.9876  141.0074  170.5753 C.ar    1  UNL1        0.0000
     14 C         140.9323  141.8526  171.2248 C.ar    1  UNL1        0.0000
     15 C         140.1811  142.8677  170.4154 C.ar    1  UNL1        0.0000
     16 C         140.4852  143.0376  168.9564 C.ar    1  UNL1        0.0000
     17 C         144.0304  141.7801  157.9827 C.3     1  UNL1        0.0992
     18 C         143.4992  143.1750  155.8562 C.3     1  UNL1        0.0902
     19 N         143.0332  142.4457  157.0813 N.3     1  UNL1       -0.2639
     20 C         141.5700  142.3821  157.4050 C.3     1  UNL1        0.0995
     21 C         141.0322  143.1204  158.5949 C.ar    1  UNL1       -0.0031
     22 C         141.5603  144.4829  158.9336 C.ar    1  UNL1       -0.0030
     23 C         141.0226  145.2212  160.1234 C.ar    1  UNL1       -0.0016
     24 C         139.9568  144.5970  160.9747 C.ar    1  UNL1        0.0119
     25 C         139.4288  143.2345  160.6360 C.ar    1  UNL1        0.1342
     26 C         139.9665  142.4962  159.4461 C.ar    1  UNL1        0.0337
     27 O         138.3630  142.6103  161.4871 O.3     1  UNL1       -0.4758
     28 C         137.8253  143.3486  162.6770 C.3     1  UNL1        0.2057
     29 C         138.3534  144.7112  163.0156 C.3     1  UNL1        0.0521
     30 C         139.4192  145.3354  162.1645 C.3     1  UNL1        0.0333
@<TRIPOS>BOND
     1    18    19    1
     2    19    17    1
     3    17     1    1
     4     1     2    2
     5     2     3    1
     6     3     4    2
     7     4     5    1
     8     5     6   ar
     9     6     7   ar
    10     7     8   ar
    11     8    11    1
    12    11    12   ar
    13    12    13   ar
    14    13    14   ar
    15    14    15   ar
    16    15    16   ar
    17     8     9   ar
    18     9    10   ar
    19    19    20    1
    20    20    21    1
    21    21    22   ar
    22    22    23   ar
    23    23    24   ar
    24    24    25   ar
    25    25    26   ar
    26    25    27    1
    27    27    28    1
    28    28    29    1
    29    29    30    1
    30    10     5   ar
    31    26    21   ar
    32    16    11   ar
    33    30    24    1
@<TRIPOS>MOLECULE
*****
 30 33 0 0 0
SMALL
GASTEIGER

@<TRIPOS>ATOM
      1 C         142.5820  139.6682  167.7803 C.2     1  UNL1       -0.0088
      2 C         143.2889  138.4936  167.1715 C.2     1  UNL1       -0.0032
      3 C         143.3983  138.3746  165.6802 C.2     1  UNL1       -0.0003
      4 C         142.5994  139.2843  164.7946 C.2     1  UNL1       -0.0000
      5 C         142.7088  139.1653  163.3034 C.ar    1  UNL1       -0.0000
      6 C         142.1409  137.9666  162.6030 C.ar    1  UNL1       -0.0000
      7 C         142.2502  137.8477  161.1117 C.ar    1  UNL1        0.0000
      8 C         142.9275  138.9274  160.3208 C.ar    1  UNL1        0.0000
      9 C         143.4954  140.1261  161.0212 C.ar    1  UNL1        0.0000
     10 C         143.3860  140.2451  162.5126 C.ar    1  UNL1       -0.0000
     11 C         143.0369  138.8085  158.8296 C.ar    1  UNL1        0.0000
     12 C         143.5212  139.9731  158.0178 C.ar    1  UNL1        0.0000
     13 C         143.6306  139.8541  156.5265 C.ar    1  UNL1        0.0000
     14 C         143.2555  138.5705  155.8470 C.ar    1  UNL1        0.0000
     15 C         142.7712  137.4058  156.6588 C.ar    1  UNL1        0.0000
     16 C         142.6618  137.5248  158.1501 C.ar    1  UNL1        0.0000
     17 C         142.4726  139.7873  169.2715 C.3     1  UNL1        0.0992
     18 C         141.4846  141.3022  171.1366 C.3     1  UNL1        0.0902
     19 N         141.3023  140.4986  169.8833 N.3     1  UNL1       -0.2639
     20 C         139.9496  140.4063  169.2417 C.3     1  UNL1        0.0995
     21 C         139.8014  140.6389  167.7672 C.ar    1  UNL1       -0.0031
     22 C         140.1937  141.9591  167.1730 C.ar    1  UNL1       -0.0030
     23 C         140.0455  142.1916  165.6986 C.ar    1  UNL1       -0.0016
     24 C         139.5049  141.1040  164.8183 C.ar    1  UNL1        0.0119
     25 C         139.1126  139.7838  165.4125 C.ar    1  UNL1        0.1342
     26 C         139.2608  139.5512  166.8870 C.ar    1  UNL1        0.0337
     27 O         138.5720  138.6961  164.5324 O.3     1  UNL1       -0.4758
     28 C         138.4238  138.9287  163.0580 C.3     1  UNL1        0.2057
     29 C         138.8162  140.2489  162.4637 C.3     1  UNL1        0.0521
     30 C         139.3567  141.3365  163.3439 C.3     1  UNL1        0.0333
@<TRIPOS>BOND
     1    18    19    1
     2    19    17    1
     3    17     1    1
     4     1     2    2
     5     2     3    1
     6     3     4    2
     7     4     5    1
     8     5     6   ar
     9     6     7   ar
    10     7     8   ar
    11     8    11    1
    12    11    12   ar
    13    12    13   ar
    14    13    14   ar
    15    14    15   ar
    16    15    16   ar
    17     8     9   ar
    18     9    10   ar
    19    19    20    1
    20    20    21    1
    21    21    22   ar
    22    22    23   ar
    23    23    24   ar
    24    24    25   ar
    25    25    26   ar
    26    25    27    1
    27    27    28    1
    28    28    29    1
    29    29    30    1
    30    10     5   ar
    31    26    21   ar
    32    16    11   ar
    33    30    24    1
@<TRIPOS>MOLECULE
*****
 30 33 0 0 0
SMALL
GASTEIGER

@<TRIPOS>ATOM
      1 C         138.3560  141.8560  159.3173 C.2     1  UNL1       -0.0088
      2 C         139.2766  142.8766  159.9180 C.2     1  UNL1       -0.0032
      3 C         139.5124  142.8943  161.3993 C.2     1  UNL1       -0.0003
      4 C         139.3609  141.6337  162.1979 C.2     1  UNL1       -0.0000
      5 C         139.5967  141.6514  163.6792 C.ar    1  UNL1       -0.0000
      6 C         140.0442  142.9149  164.3524 C.ar    1  UNL1       -0.0000
      7 C         140.2800  142.9326  165.8336 C.ar    1  UNL1        0.0000
      8 C         140.0683  141.6866  166.6417 C.ar    1  UNL1        0.0000
      9 C         139.6208  140.4231  165.9685 C.ar    1  UNL1        0.0000
     10 C         139.3850  140.4055  164.4872 C.ar    1  UNL1       -0.0000
     11 C         140.3041  141.7043  168.1229 C.ar    1  UNL1        0.0000
     12 C         140.5684  143.0033  168.8248 C.ar    1  UNL1        0.0000
     13 C         140.8042  143.0209  170.3061 C.ar    1  UNL1        0.0000
     14 C         140.7757  141.7396  171.0854 C.ar    1  UNL1        0.0000
     15 C         140.5115  140.4406  170.3834 C.ar    1  UNL1        0.0000
     16 C         140.2757  140.4229  168.9022 C.ar    1  UNL1        0.0000
     17 C         138.1202  141.8382  157.8361 C.3     1  UNL1        0.0992
     18 C         139.5027  141.6886  155.6415 C.3     1  UNL1        0.0902
     19 N         139.0526  141.0815  156.9372 N.3     1  UNL1       -0.2639
     20 C         139.5350  139.7178  157.3339 C.3     1  UNL1        0.0995
     21 C         140.3155  139.5379  158.6022 C.ar    1  UNL1       -0.0031
     22 C         141.5892  140.3014  158.8137 C.ar    1  UNL1       -0.0030
     23 C         142.3697  140.1215  160.0819 C.ar    1  UNL1       -0.0016
     24 C         141.8765  139.1781  161.1387 C.ar    1  UNL1        0.0119
     25 C         140.6028  138.4146  160.9273 C.ar    1  UNL1        0.1342
     26 C         139.8223  138.5945  159.6590 C.ar    1  UNL1        0.0337
     27 O         140.1096  137.4713  161.9840 O.3     1  UNL1       -0.4758
     28 C         140.8901  137.2914  163.2522 C.3     1  UNL1        0.2057
     29 C         142.1638  138.0549  163.4637 C.3     1  UNL1        0.0521
     30 C         142.6570  138.9983  162.4069 C.3     1  UNL1        0.0333
@<TRIPOS>BOND
     1    18    19    1
     2    19    17    1
     3    17     1    1
     4     1     2    2
     5     2     3    1
     6     3     4    2
     7     4     5    1
     8     5     6   ar
     9     6     7   ar
    10     7     8   ar
    11     8    11    1
    12    11    12   ar
    13    12    13   ar
    14    13    14   ar
    15    14    15   ar
    16    15    16   ar
    17     8     9   ar
    18     9    10   ar
    19    19    20    1
    20    20    21    1
    21    21    22   ar
    22    22    23   ar
    23    23    24   ar
    24    24    25   ar
    25    25    26   ar
    26    25    27    1
    27    27    28    1
    28    28    29    1
    29    29    30    1
    30    10     5   ar
    31    26    21   ar
    32    16    11   ar
    33    30    24    1
