@<TRIPOS>MOLECULE
*****
 44 48 0 0 0
SMALL
GASTEIGER

@<TRIPOS>ATOM
      1 C         140.3817  139.7819  167.2093 C.3     1  UNL1        0.0781
      2 C         141.3685  139.3162  166.1800 C.3     1  UNL1        0.0372
      3 C         140.8929  138.5705  164.9685 C.3     1  UNL1        0.0738
      4 N         139.4306  138.2904  164.7863 N.3     1  UNL1       -0.2725
      5 C         138.4438  138.7560  165.8157 C.3     1  UNL1        0.0738
      6 C         138.9194  139.5017  167.0272 C.3     1  UNL1        0.0372
      7 N         140.8573  140.5276  168.4208 N.am    1  UNL1       -0.2808
      8 C         140.9462  142.0247  168.3930 C.2     1  UNL1        0.2300
      9 O         141.4218  142.7705  169.6044 O.2     1  UNL1       -0.2745
     10 C         142.5504  139.0413  169.7146 C.3     1  UNL1        0.0233
     11 C         141.2440  139.7763  169.6601 C.3     1  UNL1        0.0934
     12 C         140.5595  142.7761  167.1536 C.3     1  UNL1        0.1116
     13 C         141.4557  142.7509  165.9510 C.ar    1  UNL1       -0.0130
     14 C         142.9377  142.5958  166.1231 C.ar    1  UNL1       -0.0025
     15 C         143.8338  142.5706  164.9205 C.ar    1  UNL1        0.0180
     16 C         143.2479  142.7006  163.5458 C.ar    1  UNL1        0.1057
     17 C         141.7660  142.8558  163.3737 C.ar    1  UNL1        0.0180
     18 C         140.8699  142.8810  164.5763 C.ar    1  UNL1       -0.0025
     19 S         144.1441  142.6755  162.3431 S.O2    1  UNL1        0.0104
     20 C         145.0403  142.6504  161.1405 C.3     1  UNL1        0.1816
     21 O         144.1531  144.1752  162.3185 O.2     1  UNL1       -0.1686
     22 O         144.1351  141.1757  162.3677 O.2     1  UNL1       -0.1686
     23 C         138.9551  137.5446  163.5748 C.3     1  UNL1        0.0738
     24 C         138.1802  138.2615  162.5092 C.3     1  UNL1        0.0378
     25 C         138.8138  139.3912  161.7527 C.3     1  UNL1        0.0816
     26 C         138.4777  140.8103  162.1034 C.ar    1  UNL1       -0.0077
     27 C         138.9189  141.9291  161.2068 C.ar    1  UNL1       -0.0030
     28 C         138.5828  143.3483  161.5575 C.ar    1  UNL1       -0.0003
     29 C         137.8056  143.6487  162.8047 C.ar    1  UNL1       -0.0000
     30 C         137.3644  142.5300  163.7012 C.ar    1  UNL1       -0.0003
     31 C         137.7004  141.1108  163.3506 C.ar    1  UNL1       -0.0030
     32 N         139.7835  139.1018  160.6455 N.3     1  UNL1       -0.2673
     33 C         141.2529  139.0239  160.9367 C.3     1  UNL1        0.0940
     34 C         142.2226  138.7344  159.8295 C.3     1  UNL1        0.1081
     35 N         141.7229  138.5229  158.4311 N.pl3   1  UNL1       -0.3046
     36 C         140.2535  138.6007  158.1399 C.3     1  UNL1        0.1081
     37 C         139.2838  138.8902  159.2471 C.3     1  UNL1        0.0940
     38 C         142.6926  138.2334  157.3238 C.ar    1  UNL1        0.0502
     39 C         143.4124  139.3601  156.6437 C.ar    1  UNL1        0.0147
     40 C         144.3821  139.0707  155.5365 C.ar    1  UNL1        0.0036
     41 C         144.6320  137.6547  155.1094 C.ar    1  UNL1        0.0297
     42 C         143.9122  136.5280  155.7896 C.ar    1  UNL1        0.1414
     43 F         144.1621  135.1120  155.3625 F       1  UNL1       -0.2041
     44 C         142.9425  136.8174  156.8968 C.ar    1  UNL1        0.0441
@<TRIPOS>BOND
     1    10    11    1
     2    11     7    1
     3     7     8   am
     4     8     9    2
     5     8    12    1
     6    12    13    1
     7    13    14   ar
     8    14    15   ar
     9    15    16   ar
    10    16    19    1
    11    19    20    1
    12    19    21    2
    13    19    22    2
    14    16    17   ar
    15    17    18   ar
    16     7     1    1
    17     1     2    1
    18     2     3    1
    19     3     4    1
    20     4    23    1
    21    23    24    1
    22    24    25    1
    23    25    26    1
    24    26    27   ar
    25    27    28   ar
    26    28    29   ar
    27    29    30   ar
    28    30    31   ar
    29    25    32    1
    30    32    33    1
    31    33    34    1
    32    34    35    1
    33    35    38    1
    34    38    39   ar
    35    39    40   ar
    36    40    41   ar
    37    41    42   ar
    38    42    43    1
    39    42    44   ar
    40    35    36    1
    41    36    37    1
    42     4     5    1
    43     5     6    1
    44    18    13   ar
    45     6     1    1
    46    31    26   ar
    47    37    32    1
    48    44    38   ar
@<TRIPOS>MOLECULE
*****
 44 48 0 0 0
SMALL
GASTEIGER

@<TRIPOS>ATOM
      1 C         139.2642  139.1067  165.3544 C.3     1  UNL1        0.0781
      2 C         138.5739  139.8763  164.2676 C.3     1  UNL1        0.0372
      3 C         138.9278  139.6273  162.8314 C.3     1  UNL1        0.0738
      4 N         139.9720  138.6088  162.4820 N.3     1  UNL1       -0.2725
      5 C         140.6624  137.8391  163.5688 C.3     1  UNL1        0.0738
      6 C         140.3085  138.0881  165.0050 C.3     1  UNL1        0.0372
      7 N         138.9103  139.3557  166.7907 N.am    1  UNL1       -0.2808
      8 C         139.7415  140.2925  167.6164 C.2     1  UNL1        0.2300
      9 O         139.3876  140.5415  169.0526 O.2     1  UNL1       -0.2745
     10 C         137.3627  137.2770  166.9730 C.3     1  UNL1        0.0233
     11 C         137.7253  138.6681  167.4012 C.3     1  UNL1        0.0934
     12 C         140.9265  140.9801  167.0058 C.3     1  UNL1        0.1116
     13 C         140.7242  142.0365  165.9602 C.ar    1  UNL1       -0.0130
     14 C         141.6529  142.1161  164.7850 C.ar    1  UNL1       -0.0025
     15 C         141.4506  143.1724  163.7395 C.ar    1  UNL1        0.0180
     16 C         140.3195  144.1490  163.8690 C.ar    1  UNL1        0.1057
     17 C         139.3907  144.0694  165.0442 C.ar    1  UNL1        0.0180
     18 C         139.5931  143.0131  166.0898 C.ar    1  UNL1       -0.0025
     19 S         140.1171  145.2054  162.8234 S.O2    1  UNL1        0.0104
     20 C         139.9148  146.2616  161.7778 C.3     1  UNL1        0.1816
     21 O         141.5829  145.5215  162.8592 O.2     1  UNL1       -0.1686
     22 O         138.6513  144.8892  162.7876 O.2     1  UNL1       -0.1686
     23 C         140.3259  138.3598  161.0457 C.3     1  UNL1        0.0738
     24 C         141.6875  138.7263  160.5344 C.3     1  UNL1        0.0378
     25 C         142.1679  140.1441  160.6298 C.3     1  UNL1        0.0816
     26 C         143.2536  140.5045  161.6000 C.ar    1  UNL1       -0.0077
     27 C         144.0498  141.7603  161.4021 C.ar    1  UNL1       -0.0030
     28 C         145.1355  142.1206  162.3723 C.ar    1  UNL1       -0.0003
     29 C         145.4251  141.2253  163.5404 C.ar    1  UNL1       -0.0000
     30 C         144.6289  139.9695  163.7383 C.ar    1  UNL1       -0.0003
     31 C         143.5432  139.6091  162.7681 C.ar    1  UNL1       -0.0030
     32 N         141.5626  141.2015  159.7549 N.3     1  UNL1       -0.2673
     33 C         140.5700  142.1701  160.3265 C.3     1  UNL1        0.0940
     34 C         139.9646  143.2275  159.4515 C.3     1  UNL1        0.1081
     35 N         140.3519  143.3164  158.0052 N.pl3   1  UNL1       -0.3046
     36 C         141.3445  142.3479  157.4336 C.3     1  UNL1        0.1081
     37 C         141.9498  141.2904  158.3085 C.3     1  UNL1        0.0940
     38 C         139.7466  144.3739  157.1302 C.ar    1  UNL1        0.0502
     39 C         140.1987  145.7988  157.2538 C.ar    1  UNL1        0.0147
     40 C         139.5934  146.8562  156.3789 C.ar    1  UNL1        0.0036
     41 C         138.5360  146.4888  155.3805 C.ar    1  UNL1        0.0297
     42 C         138.0839  145.0639  155.2570 C.ar    1  UNL1        0.1414
     43 F         137.0264  144.6964  154.2585 F       1  UNL1       -0.2041
     44 C         138.6892  144.0064  156.1319 C.ar    1  UNL1        0.0441
@<TRIPOS>BOND
     1    10    11    1
     2    11     7    1
     3     7     8   am
     4     8     9    2
     5     8    12    1
     6    12    13    1
     7    13    14   ar
     8    14    15   ar
     9    15    16   ar
    10    16    19    1
    11    19    20    1
    12    19    21    2
    13    19    22    2
    14    16    17   ar
    15    17    18   ar
    16     7     1    1
    17     1     2    1
    18     2     3    1
    19     3     4    1
    20     4    23    1
    21    23    24    1
    22    24    25    1
    23    25    26    1
    24    26    27   ar
    25    27    28   ar
    26    28    29   ar
    27    29    30   ar
    28    30    31   ar
    29    25    32    1
    30    32    33    1
    31    33    34    1
    32    34    35    1
    33    35    38    1
    34    38    39   ar
    35    39    40   ar
    36    40    41   ar
    37    41    42   ar
    38    42    43    1
    39    42    44   ar
    40    35    36    1
    41    36    37    1
    42     4     5    1
    43     5     6    1
    44    18    13   ar
    45     6     1    1
    46    31    26   ar
    47    37    32    1
    48    44    38   ar
@<TRIPOS>MOLECULE
*****
 44 48 0 0 0
SMALL
GASTEIGER

@<TRIPOS>ATOM
      1 C         142.6821  139.3407  159.3890 C.3     1  UNL1        0.0781
      2 C         142.9830  139.0063  160.8199 C.3     1  UNL1        0.0372
      3 C         143.7841  139.9565  161.6597 C.3     1  UNL1        0.0738
      4 N         144.2844  141.2411  161.0686 N.3     1  UNL1       -0.2725
      5 C         143.9836  141.5755  159.6376 C.3     1  UNL1        0.0738
      6 C         143.1824  140.6253  158.7978 C.3     1  UNL1        0.0372
      7 N         141.8809  138.3905  158.5492 N.am    1  UNL1       -0.2808
      8 C         140.3895  138.5314  158.4730 C.2     1  UNL1        0.2300
      9 O         139.5883  137.5812  157.6332 O.2     1  UNL1       -0.2745
     10 C         142.9054  137.4941  156.3363 C.3     1  UNL1        0.0233
     11 C         142.5712  137.2994  157.7856 C.3     1  UNL1        0.0934
     12 C         139.6992  139.6224  159.2366 C.3     1  UNL1        0.1116
     13 C         139.3762  139.4326  160.6891 C.ar    1  UNL1       -0.0130
     14 C         138.9563  140.6062  161.5236 C.ar    1  UNL1       -0.0025
     15 C         138.6333  140.4164  162.9760 C.ar    1  UNL1        0.0180
     16 C         138.7302  139.0530  163.5940 C.ar    1  UNL1        0.1057
     17 C         139.1501  137.8795  162.7595 C.ar    1  UNL1        0.0180
     18 C         139.4731  138.0693  161.3070 C.ar    1  UNL1       -0.0025
     19 S         138.4072  138.8632  165.0465 S.O2    1  UNL1        0.0104
     20 C         138.0842  138.6734  166.4989 C.3     1  UNL1        0.1816
     21 O         138.8189  137.4241  164.9499 O.2     1  UNL1       -0.1686
     22 O         137.9955  140.3024  165.1430 O.2     1  UNL1       -0.1686
     23 C         145.0856  142.1913  161.9084 C.3     1  UNL1        0.0738
     24 C         144.5150  143.5278  162.2801 C.3     1  UNL1        0.0378
     25 C         143.1243  143.6218  162.8342 C.3     1  UNL1        0.0816
     26 C         142.0716  144.3904  162.0921 C.ar    1  UNL1       -0.0077
     27 C         141.1365  145.2946  162.8391 C.ar    1  UNL1       -0.0030
     28 C         140.0837  146.0633  162.0970 C.ar    1  UNL1       -0.0003
     29 C         139.9660  145.9277  160.6078 C.ar    1  UNL1       -0.0000
     30 C         140.9010  145.0236  159.8607 C.ar    1  UNL1       -0.0003
     31 C         141.9538  144.2549  160.6029 C.ar    1  UNL1       -0.0030
     32 N         142.7864  142.9471  164.1306 N.3     1  UNL1       -0.2673
     33 C         143.6678  143.1403  165.3288 C.3     1  UNL1        0.0940
     34 C         143.3298  142.4656  166.6252 C.3     1  UNL1        0.1081
     35 N         142.1104  141.5976  166.7233 N.pl3   1  UNL1       -0.3046
     36 C         141.2289  141.4044  165.5251 C.3     1  UNL1        0.1081
     37 C         141.5669  142.0791  164.2288 C.3     1  UNL1        0.0940
     38 C         141.7724  140.9229  168.0197 C.ar    1  UNL1        0.0502
     39 C         140.6432  141.4388  168.8616 C.ar    1  UNL1        0.0147
     40 C         140.3051  140.7641  170.1579 C.ar    1  UNL1        0.0036
     41 C         141.0963  139.5736  170.6123 C.ar    1  UNL1        0.0297
     42 C         142.2256  139.0577  169.7705 C.ar    1  UNL1        0.1414
     43 F         143.0168  137.8671  170.2250 F       1  UNL1       -0.2041
     44 C         142.5636  139.7324  168.4741 C.ar    1  UNL1        0.0441
@<TRIPOS>BOND
     1    10    11    1
     2    11     7    1
     3     7     8   am
     4     8     9    2
     5     8    12    1
     6    12    13    1
     7    13    14   ar
     8    14    15   ar
     9    15    16   ar
    10    16    19    1
    11    19    20    1
    12    19    21    2
    13    19    22    2
    14    16    17   ar
    15    17    18   ar
    16     7     1    1
    17     1     2    1
    18     2     3    1
    19     3     4    1
    20     4    23    1
    21    23    24    1
    22    24    25    1
    23    25    26    1
    24    26    27   ar
    25    27    28   ar
    26    28    29   ar
    27    29    30   ar
    28    30    31   ar
    29    25    32    1
    30    32    33    1
    31    33    34    1
    32    34    35    1
    33    35    38    1
    34    38    39   ar
    35    39    40   ar
    36    40    41   ar
    37    41    42   ar
    38    42    43    1
    39    42    44   ar
    40    35    36    1
    41    36    37    1
    42     4     5    1
    43     5     6    1
    44    18    13   ar
    45     6     1    1
    46    31    26   ar
    47    37    32    1
    48    44    38   ar
@<TRIPOS>MOLECULE
*****
 44 48 0 0 0
SMALL
GASTEIGER

@<TRIPOS>ATOM
      1 C         143.8671  142.6494  158.5310 C.3     1  UNL1        0.0781
      2 C         144.0596  142.6402  160.0185 C.3     1  UNL1        0.0372
      3 C         143.1715  143.4729  160.8949 C.3     1  UNL1        0.0738
      4 N         142.0909  144.3147  160.2837 N.3     1  UNL1       -0.2725
      5 C         141.8983  144.3239  158.7960 C.3     1  UNL1        0.0738
      6 C         142.7864  143.4912  157.9197 C.3     1  UNL1        0.0372
      7 N         144.7551  141.8167  157.6546 N.am    1  UNL1       -0.2808
      8 C         144.2704  140.4957  157.1348 C.2     1  UNL1        0.2300
      9 O         145.1585  139.6631  156.2585 O.2     1  UNL1       -0.2745
     10 C         146.4299  142.7337  155.8928 C.3     1  UNL1        0.0233
     11 C         146.1279  142.3050  157.2981 C.3     1  UNL1        0.0934
     12 C         142.8977  140.0075  157.4913 C.3     1  UNL1        0.1116
     13 C         142.6289  139.4596  158.8616 C.ar    1  UNL1       -0.0130
     14 C         141.2169  139.3028  159.3429 C.ar    1  UNL1       -0.0025
     15 C         140.9482  138.7549  160.7131 C.ar    1  UNL1        0.0180
     16 C         142.0914  138.3638  161.6020 C.ar    1  UNL1        0.1057
     17 C         143.5033  138.5206  161.1207 C.ar    1  UNL1        0.0180
     18 C         143.7721  139.0685  159.7505 C.ar    1  UNL1       -0.0025
     19 S         141.8226  137.8159  162.9723 S.O2    1  UNL1        0.0104
     20 C         141.5537  137.2680  164.3425 C.3     1  UNL1        0.1816
     21 O         140.5031  137.2816  162.4998 O.2     1  UNL1       -0.1686
     22 O         143.1421  138.3503  163.4449 O.2     1  UNL1       -0.1686
     23 C         141.2028  145.1474  161.1600 C.3     1  UNL1        0.0738
     24 C         139.8609  144.6250  161.5802 C.3     1  UNL1        0.0378
     25 C         139.7155  143.1983  162.0197 C.3     1  UNL1        0.0816
     26 C         139.0106  142.2102  161.1384 C.ar    1  UNL1       -0.0077
     27 C         138.2617  141.0623  161.7480 C.ar    1  UNL1       -0.0030
     28 C         137.5567  140.0742  160.8668 C.ar    1  UNL1       -0.0003
     29 C         137.6006  140.2339  159.3759 C.ar    1  UNL1       -0.0000
     30 C         138.3494  141.3817  158.7664 C.ar    1  UNL1       -0.0003
     31 C         139.0545  142.3699  159.6476 C.ar    1  UNL1       -0.0030
     32 N         140.2751  142.7596  163.3404 N.3     1  UNL1       -0.2673
     33 C         141.2577  141.6278  163.4000 C.3     1  UNL1        0.0940
     34 C         141.8173  141.1891  164.7208 C.3     1  UNL1        0.1081
     35 N         141.3942  141.8822  165.9820 N.pl3   1  UNL1       -0.3046
     36 C         140.4116  143.0140  165.9224 C.3     1  UNL1        0.1081
     37 C         139.8521  143.4527  164.6017 C.3     1  UNL1        0.0940
     38 C         141.9538  141.4436  167.3028 C.ar    1  UNL1        0.0502
     39 C         141.7490  140.0340  167.7732 C.ar    1  UNL1        0.0147
     40 C         142.3085  139.5953  169.0939 C.ar    1  UNL1        0.0036
     41 C         143.0728  140.5662  169.9443 C.ar    1  UNL1        0.0297
     42 C         143.2776  141.9757  169.4740 C.ar    1  UNL1        0.1414
     43 F         144.0419  142.9466  170.3245 F       1  UNL1       -0.2041
     44 C         142.7181  142.4144  168.1532 C.ar    1  UNL1        0.0441
@<TRIPOS>BOND
     1    10    11    1
     2    11     7    1
     3     7     8   am
     4     8     9    2
     5     8    12    1
     6    12    13    1
     7    13    14   ar
     8    14    15   ar
     9    15    16   ar
    10    16    19    1
    11    19    20    1
    12    19    21    2
    13    19    22    2
    14    16    17   ar
    15    17    18   ar
    16     7     1    1
    17     1     2    1
    18     2     3    1
    19     3     4    1
    20     4    23    1
    21    23    24    1
    22    24    25    1
    23    25    26    1
    24    26    27   ar
    25    27    28   ar
    26    28    29   ar
    27    29    30   ar
    28    30    31   ar
    29    25    32    1
    30    32    33    1
    31    33    34    1
    32    34    35    1
    33    35    38    1
    34    38    39   ar
    35    39    40   ar
    36    40    41   ar
    37    41    42   ar
    38    42    43    1
    39    42    44   ar
    40    35    36    1
    41    36    37    1
    42     4     5    1
    43     5     6    1
    44    18    13   ar
    45     6     1    1
    46    31    26   ar
    47    37    32    1
    48    44    38   ar
@<TRIPOS>MOLECULE
*****
 44 48 0 0 0
SMALL
GASTEIGER

@<TRIPOS>ATOM
      1 C         141.9410  139.2676  165.8797 C.3     1  UNL1        0.0781
      2 C         143.0390  140.0666  165.2425 C.3     1  UNL1        0.0372
      3 C         143.5772  139.6653  163.9011 C.3     1  UNL1        0.0738
      4 N         143.0174  138.4650  163.1970 N.3     1  UNL1       -0.2725
      5 C         141.9194  137.6659  163.8342 C.3     1  UNL1        0.0738
      6 C         141.3812  138.0672  165.1756 C.3     1  UNL1        0.0372
      7 N         141.4029  139.6689  167.2211 N.am    1  UNL1       -0.2808
      8 C         139.9995  140.1846  167.3425 C.2     1  UNL1        0.2300
      9 O         139.4613  140.5859  168.6839 O.2     1  UNL1       -0.2745
     10 C         142.8902  140.7823  169.0371 C.3     1  UNL1        0.0233
     11 C         142.2680  139.5545  168.4411 C.3     1  UNL1        0.0934
     12 C         139.1344  140.2990  166.1225 C.3     1  UNL1        0.1116
     13 C         139.2302  141.5128  165.2462 C.ar    1  UNL1       -0.0130
     14 C         138.4838  141.5599  163.9460 C.ar    1  UNL1       -0.0025
     15 C         138.5796  142.7736  163.0698 C.ar    1  UNL1        0.0180
     16 C         139.4219  143.9401  163.4938 C.ar    1  UNL1        0.1057
     17 C         140.1683  143.8930  164.7940 C.ar    1  UNL1        0.0180
     18 C         140.0725  142.6793  165.6702 C.ar    1  UNL1       -0.0025
     19 S         139.5177  145.1538  162.6175 S.O2    1  UNL1        0.0104
     20 C         139.6136  146.3675  161.7413 C.3     1  UNL1        0.1816
     21 O         140.9813  145.2621  162.9276 O.2     1  UNL1       -0.1686
     22 O         138.0541  145.0456  162.3075 O.2     1  UNL1       -0.1686
     23 C         143.5556  138.0637  161.8556 C.3     1  UNL1        0.0738
     24 C         142.6125  137.7586  160.7298 C.3     1  UNL1        0.0378
     25 C         141.9782  138.8779  159.9585 C.3     1  UNL1        0.0816
     26 C         140.5373  139.2251  160.1889 C.ar    1  UNL1       -0.0077
     27 C         139.7106  138.4065  161.1357 C.ar    1  UNL1       -0.0030
     28 C         138.2697  138.7537  161.3660 C.ar    1  UNL1       -0.0003
     29 C         137.6554  139.9196  160.6496 C.ar    1  UNL1       -0.0000
     30 C         138.4820  140.7382  159.7027 C.ar    1  UNL1       -0.0003
     31 C         139.9230  140.3910  159.4724 C.ar    1  UNL1       -0.0030
     32 N         142.7848  139.6499  158.9569 N.3     1  UNL1       -0.2673
     33 C         142.8723  139.1737  157.5372 C.3     1  UNL1        0.0940
     34 C         143.6790  139.9458  156.5355 C.3     1  UNL1        0.1081
     35 N         144.3981  141.1940  156.9536 N.pl3   1  UNL1       -0.3046
     36 C         144.3106  141.6702  158.3734 C.3     1  UNL1        0.1081
     37 C         143.5040  140.8981  159.3750 C.3     1  UNL1        0.0940
     38 C         145.2048  141.9661  155.9520 C.ar    1  UNL1        0.0502
     39 C         144.5216  142.9048  155.0022 C.ar    1  UNL1        0.0147
     40 C         145.3282  143.6769  154.0006 C.ar    1  UNL1        0.0036
     41 C         146.8180  143.5103  153.9488 C.ar    1  UNL1        0.0297
     42 C         147.5012  142.5716  154.8986 C.ar    1  UNL1        0.1414
     43 F         148.9911  142.4050  154.8467 F       1  UNL1       -0.2041
     44 C         146.6946  141.7995  155.9002 C.ar    1  UNL1        0.0441
@<TRIPOS>BOND
     1    10    11    1
     2    11     7    1
     3     7     8   am
     4     8     9    2
     5     8    12    1
     6    12    13    1
     7    13    14   ar
     8    14    15   ar
     9    15    16   ar
    10    16    19    1
    11    19    20    1
    12    19    21    2
    13    19    22    2
    14    16    17   ar
    15    17    18   ar
    16     7     1    1
    17     1     2    1
    18     2     3    1
    19     3     4    1
    20     4    23    1
    21    23    24    1
    22    24    25    1
    23    25    26    1
    24    26    27   ar
    25    27    28   ar
    26    28    29   ar
    27    29    30   ar
    28    30    31   ar
    29    25    32    1
    30    32    33    1
    31    33    34    1
    32    34    35    1
    33    35    38    1
    34    38    39   ar
    35    39    40   ar
    36    40    41   ar
    37    41    42   ar
    38    42    43    1
    39    42    44   ar
    40    35    36    1
    41    36    37    1
    42     4     5    1
    43     5     6    1
    44    18    13   ar
    45     6     1    1
    46    31    26   ar
    47    37    32    1
    48    44    38   ar
@<TRIPOS>MOLECULE
*****
 44 48 0 0 0
SMALL
GASTEIGER

@<TRIPOS>ATOM
      1 C         138.9040  138.9071  164.8495 C.3     1  UNL1        0.0781
      2 C         138.1360  139.7970  163.9178 C.3     1  UNL1        0.0372
      3 C         138.2541  139.6097  162.4342 C.3     1  UNL1        0.0738
      4 N         139.1403  138.5326  161.8824 N.3     1  UNL1       -0.2725
      5 C         139.9084  137.6427  162.8142 C.3     1  UNL1        0.0738
      6 C         139.7902  137.8299  164.2978 C.3     1  UNL1        0.0372
      7 N         138.7859  139.0944  166.3331 N.am    1  UNL1       -0.2808
      8 C         139.8249  139.8822  167.0747 C.2     1  UNL1        0.2300
      9 O         139.7067  140.0694  168.5583 O.2     1  UNL1       -0.2745
     10 C         137.3500  137.0240  166.9667 C.3     1  UNL1        0.0233
     11 C         137.6288  138.4938  167.0751 C.3     1  UNL1        0.0934
     12 C         140.9819  140.4827  166.3328 C.3     1  UNL1        0.1116
     13 C         140.7580  141.6377  165.4021 C.ar    1  UNL1       -0.0130
     14 C         139.9749  142.8312  165.8628 C.ar    1  UNL1       -0.0025
     15 C         139.7511  143.9860  164.9322 C.ar    1  UNL1        0.0180
     16 C         140.3103  143.9474  163.5409 C.ar    1  UNL1        0.1057
     17 C         141.0934  142.7539  163.0802 C.ar    1  UNL1        0.0180
     18 C         141.3173  141.5990  164.0108 C.ar    1  UNL1       -0.0025
     19 S         140.0864  145.1024  162.6102 S.O2    1  UNL1        0.0104
     20 C         139.8625  146.2573  161.6796 C.3     1  UNL1        0.1816
     21 O         138.6169  145.0571  162.9076 O.2     1  UNL1       -0.1686
     22 O         141.5559  145.1477  162.3128 O.2     1  UNL1       -0.1686
     23 C         139.2584  138.3454  160.3988 C.3     1  UNL1        0.0738
     24 C         139.6806  139.4924  159.5294 C.3     1  UNL1        0.0378
     25 C         140.9778  139.4270  158.7790 C.3     1  UNL1        0.0816
     26 C         141.9421  140.5739  158.8469 C.ar    1  UNL1       -0.0077
     27 C         142.1988  141.4111  157.6289 C.ar    1  UNL1       -0.0030
     28 C         143.1632  142.5580  157.6968 C.ar    1  UNL1       -0.0003
     29 C         143.8709  142.8677  158.9826 C.ar    1  UNL1       -0.0000
     30 C         143.6142  142.0306  160.2005 C.ar    1  UNL1       -0.0003
     31 C         142.6498  140.8837  160.1327 C.ar    1  UNL1       -0.0030
     32 N         141.3106  138.2147  157.9608 N.3     1  UNL1       -0.2673
     33 C         140.3543  137.7331  156.9104 C.3     1  UNL1        0.0940
     34 C         140.6872  136.5207  156.0922 C.3     1  UNL1        0.1081
     35 N         141.9764  135.7901  156.3244 N.pl3   1  UNL1       -0.3046
     36 C         142.9328  136.2717  157.3748 C.3     1  UNL1        0.1081
     37 C         142.5999  137.4840  158.1930 C.3     1  UNL1        0.0940
     38 C         142.3093  134.5777  155.5061 C.ar    1  UNL1        0.0502
     39 C         141.6282  134.3517  154.1889 C.ar    1  UNL1        0.0147
     40 C         141.9611  133.1395  153.3707 C.ar    1  UNL1        0.0036
     41 C         142.9751  132.1532  153.8697 C.ar    1  UNL1        0.0297
     42 C         143.6561  132.3791  155.1869 C.ar    1  UNL1        0.1414
     43 F         144.6702  131.3927  155.6859 F       1  UNL1       -0.2041
     44 C         143.3233  133.5914  156.0051 C.ar    1  UNL1        0.0441
@<TRIPOS>BOND
     1    10    11    1
     2    11     7    1
     3     7     8   am
     4     8     9    2
     5     8    12    1
     6    12    13    1
     7    13    14   ar
     8    14    15   ar
     9    15    16   ar
    10    16    19    1
    11    19    20    1
    12    19    21    2
    13    19    22    2
    14    16    17   ar
    15    17    18   ar
    16     7     1    1
    17     1     2    1
    18     2     3    1
    19     3     4    1
    20     4    23    1
    21    23    24    1
    22    24    25    1
    23    25    26    1
    24    26    27   ar
    25    27    28   ar
    26    28    29   ar
    27    29    30   ar
    28    30    31   ar
    29    25    32    1
    30    32    33    1
    31    33    34    1
    32    34    35    1
    33    35    38    1
    34    38    39   ar
    35    39    40   ar
    36    40    41   ar
    37    41    42   ar
    38    42    43    1
    39    42    44   ar
    40    35    36    1
    41    36    37    1
    42     4     5    1
    43     5     6    1
    44    18    13   ar
    45     6     1    1
    46    31    26   ar
    47    37    32    1
    48    44    38   ar
@<TRIPOS>MOLECULE
*****
 44 48 0 0 0
SMALL
GASTEIGER

@<TRIPOS>ATOM
      1 C         139.4221  140.2164  164.8470 C.3     1  UNL1        0.0781
      2 C         140.0806  141.1958  165.7729 C.3     1  UNL1        0.0372
      3 C         139.8739  142.6685  165.5770 C.3     1  UNL1        0.0738
      4 N         139.0088  143.1619  164.4554 N.3     1  UNL1       -0.2725
      5 C         138.3502  142.1825  163.5295 C.3     1  UNL1        0.0738
      6 C         138.5569  140.7097  163.7253 C.3     1  UNL1        0.0372
      7 N         139.6287  138.7436  165.0429 N.am    1  UNL1       -0.2808
      8 C         140.9178  138.1043  164.6190 C.2     1  UNL1        0.2300
      9 O         141.1245  136.6315  164.8148 O.2     1  UNL1       -0.2745
     10 C         137.7563  138.4467  166.8192 C.3     1  UNL1        0.0233
     11 C         138.5464  137.9103  165.6625 C.3     1  UNL1        0.0934
     12 C         142.0001  138.9376  163.9993 C.3     1  UNL1        0.1116
     13 C         142.2160  138.9037  162.5152 C.ar    1  UNL1       -0.0130
     14 C         143.6094  138.9036  161.9599 C.ar    1  UNL1       -0.0025
     15 C         143.8253  138.8696  160.4759 C.ar    1  UNL1        0.0180
     16 C         142.6478  138.8358  159.5473 C.ar    1  UNL1        0.1057
     17 C         141.2544  138.8359  160.1027 C.ar    1  UNL1        0.0180
     18 C         141.0385  138.8699  161.5866 C.ar    1  UNL1       -0.0025
     19 S         142.8637  138.8018  158.0633 S.O2    1  UNL1        0.0104
     20 C         143.0796  138.7679  156.5793 C.3     1  UNL1        0.1816
     21 O         144.0950  139.6433  158.2232 O.2     1  UNL1       -0.1686
     22 O         141.6324  137.9603  157.9033 O.2     1  UNL1       -0.1686
     23 C         138.8021  144.6346  164.2596 C.3     1  UNL1        0.0738
     24 C         139.2182  145.2859  162.9741 C.3     1  UNL1        0.0378
     25 C         140.2869  144.6601  162.1278 C.3     1  UNL1        0.0816
     26 C         141.5869  144.2427  162.7487 C.ar    1  UNL1       -0.0077
     27 C         142.0625  142.8265  162.6128 C.ar    1  UNL1       -0.0030
     28 C         143.3626  142.4091  163.2337 C.ar    1  UNL1       -0.0003
     29 C         144.1871  143.4078  163.9906 C.ar    1  UNL1       -0.0000
     30 C         143.7115  144.8239  164.1265 C.ar    1  UNL1       -0.0003
     31 C         142.4114  145.2414  163.5056 C.ar    1  UNL1       -0.0030
     32 N         140.0555  144.4517  160.6605 N.3     1  UNL1       -0.2673
     33 C         139.3108  143.2402  160.1833 C.3     1  UNL1        0.0940
     34 C         139.0794  143.0317  158.7159 C.3     1  UNL1        0.1081
     35 N         139.5927  144.0348  157.7258 N.pl3   1  UNL1       -0.3046
     36 C         140.3374  145.2463  158.2030 C.3     1  UNL1        0.1081
     37 C         140.5688  145.4548  159.6703 C.3     1  UNL1        0.0940
     38 C         139.3614  143.8264  156.2585 C.ar    1  UNL1        0.0502
     39 C         140.4336  143.2089  155.4104 C.ar    1  UNL1        0.0147
     40 C         140.2022  143.0005  153.9431 C.ar    1  UNL1        0.0036
     41 C         138.8987  143.4096  153.3239 C.ar    1  UNL1        0.0297
     42 C         137.8266  144.0270  154.1719 C.ar    1  UNL1        0.1414
     43 F         136.5230  144.4361  153.5526 F       1  UNL1       -0.2041
     44 C         138.0579  144.2354  155.6392 C.ar    1  UNL1        0.0441
@<TRIPOS>BOND
     1    10    11    1
     2    11     7    1
     3     7     8   am
     4     8     9    2
     5     8    12    1
     6    12    13    1
     7    13    14   ar
     8    14    15   ar
     9    15    16   ar
    10    16    19    1
    11    19    20    1
    12    19    21    2
    13    19    22    2
    14    16    17   ar
    15    17    18   ar
    16     7     1    1
    17     1     2    1
    18     2     3    1
    19     3     4    1
    20     4    23    1
    21    23    24    1
    22    24    25    1
    23    25    26    1
    24    26    27   ar
    25    27    28   ar
    26    28    29   ar
    27    29    30   ar
    28    30    31   ar
    29    25    32    1
    30    32    33    1
    31    33    34    1
    32    34    35    1
    33    35    38    1
    34    38    39   ar
    35    39    40   ar
    36    40    41   ar
    37    41    42   ar
    38    42    43    1
    39    42    44   ar
    40    35    36    1
    41    36    37    1
    42     4     5    1
    43     5     6    1
    44    18    13   ar
    45     6     1    1
    46    31    26   ar
    47    37    32    1
    48    44    38   ar
@<TRIPOS>MOLECULE
*****
 44 48 0 0 0
SMALL
GASTEIGER

@<TRIPOS>ATOM
      1 C         140.0413  140.3715  166.9365 C.3     1  UNL1        0.0781
      2 C         139.3514  139.0962  166.5524 C.3     1  UNL1        0.0372
      3 C         138.5772  139.0192  165.2700 C.3     1  UNL1        0.0738
      4 N         138.4929  140.2174  164.3717 N.3     1  UNL1       -0.2725
      5 C         139.1828  141.4928  164.7558 C.3     1  UNL1        0.0738
      6 C         139.9570  141.5698  166.0382 C.3     1  UNL1        0.0372
      7 N         140.8155  140.4485  168.2190 N.am    1  UNL1       -0.2808
      8 C         142.1628  139.7969  168.3220 C.2     1  UNL1        0.2300
      9 O         142.9370  139.8739  169.6044 O.2     1  UNL1       -0.2745
     10 C         139.0418  140.6266  170.1088 C.3     1  UNL1        0.0233
     11 C         140.2426  141.1770  169.3983 C.3     1  UNL1        0.0934
     12 C         142.7357  139.0683  167.1426 C.3     1  UNL1        0.1116
     13 C         143.1079  139.8250  165.9021 C.ar    1  UNL1       -0.0130
     14 C         143.4637  141.2796  165.9892 C.ar    1  UNL1       -0.0025
     15 C         143.8359  142.0362  164.7487 C.ar    1  UNL1        0.0180
     16 C         143.8524  141.3383  163.4211 C.ar    1  UNL1        0.1057
     17 C         143.4967  139.8837  163.3339 C.ar    1  UNL1        0.0180
     18 C         143.1244  139.1271  164.5744 C.ar    1  UNL1       -0.0025
     19 S         144.2247  142.0950  162.1805 S.O2    1  UNL1        0.0104
     20 C         144.5968  142.8517  160.9400 C.3     1  UNL1        0.1816
     21 O         142.7896  142.4872  161.9891 O.2     1  UNL1       -0.1686
     22 O         145.6597  141.7028  162.3719 O.2     1  UNL1       -0.1686
     23 C         137.7186  140.1404  163.0892 C.3     1  UNL1        0.0738
     24 C         137.5143  141.3744  162.2613 C.3     1  UNL1        0.0378
     25 C         138.5610  141.7965  161.2732 C.3     1  UNL1        0.0816
     26 C         139.0801  143.2037  161.2857 C.ar    1  UNL1       -0.0077
     27 C         138.7796  144.1037  162.4475 C.ar    1  UNL1       -0.0030
     28 C         139.2987  145.5109  162.4599 C.ar    1  UNL1       -0.0003
     29 C         140.1183  146.0182  161.3106 C.ar    1  UNL1       -0.0000
     30 C         140.4188  145.1183  160.1488 C.ar    1  UNL1       -0.0003
     31 C         139.8997  143.7110  160.1363 C.ar    1  UNL1       -0.0030
     32 N         139.0886  140.8113  160.2727 N.3     1  UNL1       -0.2673
     33 C         138.3533  140.5830  158.9854 C.3     1  UNL1        0.0940
     34 C         138.8809  139.5978  157.9848 C.3     1  UNL1        0.1081
     35 N         140.1438  138.8410  158.2716 N.pl3   1  UNL1       -0.3046
     36 C         140.8791  139.0693  159.5589 C.3     1  UNL1        0.1081
     37 C         140.3515  140.0545  160.5594 C.3     1  UNL1        0.0940
     38 C         140.6715  137.8558  157.2711 C.ar    1  UNL1        0.0502
     39 C         139.7624  137.2983  156.2162 C.ar    1  UNL1        0.0147
     40 C         140.2900  136.3131  155.2157 C.ar    1  UNL1        0.0036
     41 C         141.7267  135.8855  155.2700 C.ar    1  UNL1        0.0297
     42 C         142.6358  136.4430  156.3249 C.ar    1  UNL1        0.1414
     43 F         144.0725  136.0153  156.3792 F       1  UNL1       -0.2041
     44 C         142.1082  137.4281  157.3254 C.ar    1  UNL1        0.0441
@<TRIPOS>BOND
     1    10    11    1
     2    11     7    1
     3     7     8   am
     4     8     9    2
     5     8    12    1
     6    12    13    1
     7    13    14   ar
     8    14    15   ar
     9    15    16   ar
    10    16    19    1
    11    19    20    1
    12    19    21    2
    13    19    22    2
    14    16    17   ar
    15    17    18   ar
    16     7     1    1
    17     1     2    1
    18     2     3    1
    19     3     4    1
    20     4    23    1
    21    23    24    1
    22    24    25    1
    23    25    26    1
    24    26    27   ar
    25    27    28   ar
    26    28    29   ar
    27    29    30   ar
    28    30    31   ar
    29    25    32    1
    30    32    33    1
    31    33    34    1
    32    34    35    1
    33    35    38    1
    34    38    39   ar
    35    39    40   ar
    36    40    41   ar
    37    41    42   ar
    38    42    43    1
    39    42    44   ar
    40    35    36    1
    41    36    37    1
    42     4     5    1
    43     5     6    1
    44    18    13   ar
    45     6     1    1
    46    31    26   ar
    47    37    32    1
    48    44    38   ar
@<TRIPOS>MOLECULE
*****
 44 48 0 0 0
SMALL
GASTEIGER

@<TRIPOS>ATOM
      1 C         141.6766  143.3605  158.5029 C.3     1  UNL1        0.0781
      2 C         141.0016  142.5431  157.4417 C.3     1  UNL1        0.0372
      3 C         141.6933  141.3431  156.8659 C.3     1  UNL1        0.0738
      4 N         143.0600  140.9605  157.3513 N.3     1  UNL1       -0.2725
      5 C         143.7351  141.7780  158.4125 C.3     1  UNL1        0.0738
      6 C         143.0434  142.9780  158.9883 C.3     1  UNL1        0.0372
      7 N         140.9849  144.5605  159.0787 N.am    1  UNL1       -0.2808
      8 C         140.1812  144.4303  160.3386 C.2     1  UNL1        0.2300
      9 O         139.4895  145.6303  160.9144 O.2     1  UNL1       -0.2745
     10 C         140.3307  146.1514  157.1317 C.3     1  UNL1        0.0233
     11 C         141.0968  145.8908  158.3946 C.3     1  UNL1        0.0934
     12 C         140.0694  143.1001  161.0226 C.3     1  UNL1        0.1116
     13 C         140.6470  142.9110  162.3940 C.ar    1  UNL1       -0.0130
     14 C         141.9865  142.2568  162.5600 C.ar    1  UNL1       -0.0025
     15 C         142.5640  142.0677  163.9314 C.ar    1  UNL1        0.0180
     16 C         141.8020  142.5328  165.1367 C.ar    1  UNL1        0.1057
     17 C         140.4624  143.1869  164.9708 C.ar    1  UNL1        0.0180
     18 C         139.8849  143.3760  163.5994 C.ar    1  UNL1       -0.0025
     19 S         142.3796  142.3437  166.5082 S.O2    1  UNL1        0.0104
     20 C         142.9571  142.1546  167.8795 C.3     1  UNL1        0.1816
     21 O         140.9983  142.3631  167.0925 O.2     1  UNL1       -0.1686
     22 O         143.7609  142.3242  165.9238 O.2     1  UNL1       -0.1686
     23 C         143.7517  139.7605  156.7755 C.3     1  UNL1        0.0738
     24 C         142.9468  138.6539  156.1611 C.3     1  UNL1        0.0378
     25 C         142.2915  137.6277  157.0370 C.3     1  UNL1        0.0816
     26 C         142.2745  136.1868  156.6205 C.ar    1  UNL1       -0.0077
     27 C         141.3479  135.7315  155.5322 C.ar    1  UNL1       -0.0030
     28 C         141.3309  134.2906  155.1157 C.ar    1  UNL1       -0.0003
     29 C         142.2405  133.3050  155.7874 C.ar    1  UNL1       -0.0000
     30 C         143.1670  133.7602  156.8756 C.ar    1  UNL1       -0.0003
     31 C         143.1841  135.2011  157.2921 C.ar    1  UNL1       -0.0030
     32 N         141.6531  138.0423  158.3295 N.3     1  UNL1       -0.2673
     33 C         140.1996  138.4111  158.3637 C.3     1  UNL1        0.0940
     34 C         139.5612  138.8257  159.6562 C.3     1  UNL1        0.1081
     35 N         140.3764  138.8715  160.9145 N.pl3   1  UNL1       -0.3046
     36 C         141.8299  138.5027  160.8803 C.3     1  UNL1        0.1081
     37 C         142.4683  138.0881  159.5879 C.3     1  UNL1        0.0940
     38 C         139.7380  139.2861  162.2071 C.ar    1  UNL1        0.0502
     39 C         138.3766  139.9159  162.2031 C.ar    1  UNL1        0.0147
     40 C         137.7382  140.3306  163.4955 C.ar    1  UNL1        0.0036
     41 C         138.4612  140.1154  164.7920 C.ar    1  UNL1        0.0297
     42 C         139.8226  139.4856  164.7960 C.ar    1  UNL1        0.1414
     43 F         140.5456  139.2704  166.0926 F       1  UNL1       -0.2041
     44 C         140.4610  139.0709  163.5036 C.ar    1  UNL1        0.0441
@<TRIPOS>BOND
     1    10    11    1
     2    11     7    1
     3     7     8   am
     4     8     9    2
     5     8    12    1
     6    12    13    1
     7    13    14   ar
     8    14    15   ar
     9    15    16   ar
    10    16    19    1
    11    19    20    1
    12    19    21    2
    13    19    22    2
    14    16    17   ar
    15    17    18   ar
    16     7     1    1
    17     1     2    1
    18     2     3    1
    19     3     4    1
    20     4    23    1
    21    23    24    1
    22    24    25    1
    23    25    26    1
    24    26    27   ar
    25    27    28   ar
    26    28    29   ar
    27    29    30   ar
    28    30    31   ar
    29    25    32    1
    30    32    33    1
    31    33    34    1
    32    34    35    1
    33    35    38    1
    34    38    39   ar
    35    39    40   ar
    36    40    41   ar
    37    41    42   ar
    38    42    43    1
    39    42    44   ar
    40    35    36    1
    41    36    37    1
    42     4     5    1
    43     5     6    1
    44    18    13   ar
    45     6     1    1
    46    31    26   ar
    47    37    32    1
    48    44    38   ar
