@<TRIPOS>MOLECULE
*****
 19 21 0 0 0
SMALL
GASTEIGER

@<TRIPOS>ATOM
      1 C         143.7578  143.0552  165.3619 C.3     1  UNL1        0.0320
      2 C         142.8543  142.2795  166.2740 C.3     1  UNL1        0.1155
      3 C         143.0807  142.3087  167.7565 C.3     1  UNL1        0.0328
      4 C         142.1772  141.5329  168.6686 C.3     1  UNL1        0.0426
      5 C         142.4036  141.5621  170.1512 C.3     1  UNL1        0.0673
      6 S         141.5001  140.7864  171.0633 S.3     1  UNL1       -0.0807
      7 C         140.3701  139.9815  170.4928 C.2     1  UNL1        0.1483
      8 N         139.4666  139.2057  171.4049 N.pl3   1  UNL1       -0.3380
      9 N         140.1437  139.9523  169.0103 N.2     1  UNL1       -0.2464
     10 C         141.0472  140.7280  168.0982 C.3     1  UNL1        0.1548
     11 C         140.8208  140.6989  166.6157 C.3     1  UNL1        0.1705
     12 O         141.7244  141.4746  165.7036 O.3     1  UNL1       -0.3538
     13 H         139.6152  139.2249  172.3779 H       1  UNL1        0.1442
     14 H         138.7250  138.6774  171.0305 H       1  UNL1        0.1442
     15 C         139.9173  139.9231  167.5278 C.ar    1  UNL1        0.1108
     16 N         138.6791  139.4990  168.2605 N.ar    1  UNL1       -0.2392
     17 C         137.8237  138.7147  167.3100 C.ar    1  UNL1        0.1061
     18 C         138.5334  138.6542  165.9899 C.ar    1  UNL1        0.0572
     19 S         139.8272  139.4010  166.1244 S.2     1  UNL1       -0.0683
@<TRIPOS>BOND
     1     2     1    1
     2     2     3    1
     3     4     3    1
     4     4     5    1
     5     5     6    1
     6     6     7    1
     7     7     8    1
     8     7     9    2
     9     9    10    1
    10    10    15    1
    11    15    16   ar
    12    16    17   ar
    13    17    18   ar
    14    18    19   ar
    15    10    11    1
    16    11    12    1
    17    12     2    1
    18    10     4    1
    19    19    15   ar
    20     8    13    1
    21     8    14    1
@<TRIPOS>MOLECULE
*****
 19 21 0 0 0
SMALL
GASTEIGER

@<TRIPOS>ATOM
      1 C         137.1516  137.8332  167.3853 C.3     1  UNL1        0.0320
      2 C         138.1003  138.9557  167.0852 C.3     1  UNL1        0.1155
      3 C         138.1822  139.5175  165.6968 C.3     1  UNL1        0.0328
      4 C         139.1309  140.6400  165.3967 C.3     1  UNL1        0.0426
      5 C         139.2128  141.2018  164.0083 C.3     1  UNL1        0.0673
      6 S         140.1614  142.3243  163.7082 S.3     1  UNL1       -0.0807
      7 C         141.0282  142.8850  164.7965 C.2     1  UNL1        0.1483
      8 N         141.9768  144.0075  164.4964 N.pl3   1  UNL1       -0.3380
      9 N         140.9463  142.3231  166.1849 N.2     1  UNL1       -0.2464
     10 C         139.9976  141.2007  166.4850 C.3     1  UNL1        0.1548
     11 C         139.9157  140.6388  167.8734 C.3     1  UNL1        0.1705
     12 O         138.9670  139.5163  168.1735 O.3     1  UNL1       -0.3538
     13 H         142.0306  144.3762  163.5852 H       1  UNL1        0.1442
     14 H         142.5457  144.3755  165.2107 H       1  UNL1        0.1442
     15 C         140.8643  141.7613  167.5733 C.ar    1  UNL1        0.1108
     16 N         140.4025  142.6167  168.7157 N.ar    1  UNL1       -0.2392
     17 C         141.5979  142.9491  169.5587 C.ar    1  UNL1        0.1061
     18 C         142.7985  142.2992  168.9373 C.ar    1  UNL1        0.0572
     19 S         142.3452  141.5652  167.7102 S.2     1  UNL1       -0.0683
@<TRIPOS>BOND
     1     2     1    1
     2     2     3    1
     3     4     3    1
     4     4     5    1
     5     5     6    1
     6     6     7    1
     7     7     8    1
     8     7     9    2
     9     9    10    1
    10    10    15    1
    11    15    16   ar
    12    16    17   ar
    13    17    18   ar
    14    18    19   ar
    15    10    11    1
    16    11    12    1
    17    12     2    1
    18    10     4    1
    19    19    15   ar
    20     8    13    1
    21     8    14    1
@<TRIPOS>MOLECULE
*****
 19 21 0 0 0
SMALL
GASTEIGER

@<TRIPOS>ATOM
      1 C         142.6955  141.3308  168.5414 C.3     1  UNL1        0.0320
      2 C         142.3428  141.9757  167.2339 C.3     1  UNL1        0.1155
      3 C         143.4253  142.5218  166.3509 C.3     1  UNL1        0.0328
      4 C         143.0727  143.1668  165.0433 C.3     1  UNL1        0.0426
      5 C         144.1553  143.7130  164.1603 C.3     1  UNL1        0.0673
      6 S         143.8027  144.3579  162.8528 S.3     1  UNL1       -0.0807
      7 C         142.3673  144.4567  162.4283 C.2     1  UNL1        0.1483
      8 N         142.0146  145.1017  161.1207 N.pl3   1  UNL1       -0.3380
      9 N         141.2848  143.9106  163.3113 N.2     1  UNL1       -0.2464
     10 C         141.6374  143.2656  164.6188 C.3     1  UNL1        0.1548
     11 C         140.5549  142.7195  165.5018 C.3     1  UNL1        0.1705
     12 O         140.9075  142.0745  166.8094 O.3     1  UNL1       -0.3538
     13 H         142.7252  145.4602  160.5412 H       1  UNL1        0.1442
     14 H         141.0726  145.1666  160.8421 H       1  UNL1        0.1442
     15 C         140.2022  143.3645  164.1943 C.ar    1  UNL1        0.1108
     16 N         139.3548  142.2379  163.6816 N.ar    1  UNL1       -0.2392
     17 C         137.9911  142.7844  163.3783 C.ar    1  UNL1        0.1061
     18 C         137.9958  144.2488  163.7036 C.ar    1  UNL1        0.0572
     19 S         139.3623  144.6073  164.2079 S.2     1  UNL1       -0.0683
@<TRIPOS>BOND
     1     2     1    1
     2     2     3    1
     3     4     3    1
     4     4     5    1
     5     5     6    1
     6     6     7    1
     7     7     8    1
     8     7     9    2
     9     9    10    1
    10    10    15    1
    11    15    16   ar
    12    16    17   ar
    13    17    18   ar
    14    18    19   ar
    15    10    11    1
    16    11    12    1
    17    12     2    1
    18    10     4    1
    19    19    15   ar
    20     8    13    1
    21     8    14    1
@<TRIPOS>MOLECULE
*****
 19 21 0 0 0
SMALL
GASTEIGER

@<TRIPOS>ATOM
      1 C         142.8453  142.0259  169.0711 C.3     1  UNL1        0.0320
      2 C         141.7614  141.6809  168.0933 C.3     1  UNL1        0.1155
      3 C         141.1737  142.7477  167.2179 C.3     1  UNL1        0.0328
      4 C         140.0898  142.4028  166.2401 C.3     1  UNL1        0.0426
      5 C         139.5021  143.4697  165.3646 C.3     1  UNL1        0.0673
      6 S         138.4181  143.1247  164.3868 S.3     1  UNL1       -0.0807
      7 C         137.9219  141.7128  164.2845 C.2     1  UNL1        0.1483
      8 N         136.8379  141.3678  163.3067 N.pl3   1  UNL1       -0.3380
      9 N         138.5095  140.6460  165.1600 N.2     1  UNL1       -0.2464
     10 C         139.5935  140.9910  166.1378 C.3     1  UNL1        0.1548
     11 C         140.1811  139.9242  167.0133 C.3     1  UNL1        0.1705
     12 O         141.2651  140.2691  167.9910 O.3     1  UNL1       -0.3538
     13 H         136.4522  142.0680  162.7321 H       1  UNL1        0.1442
     14 H         136.5122  140.4412  163.2396 H       1  UNL1        0.1442
     15 C         139.0972  139.5792  166.0355 C.ar    1  UNL1        0.1108
     16 N         139.5600  138.5514  165.0457 N.ar    1  UNL1       -0.2392
     17 C         138.7997  137.2842  165.3035 C.ar    1  UNL1        0.1061
     18 C         137.8671  137.5289  166.4526 C.ar    1  UNL1        0.0572
     19 S         138.0509  138.9472  166.9050 S.2     1  UNL1       -0.0683
@<TRIPOS>BOND
     1     2     1    1
     2     2     3    1
     3     4     3    1
     4     4     5    1
     5     5     6    1
     6     6     7    1
     7     7     8    1
     8     7     9    2
     9     9    10    1
    10    10    15    1
    11    15    16   ar
    12    16    17   ar
    13    17    18   ar
    14    18    19   ar
    15    10    11    1
    16    11    12    1
    17    12     2    1
    18    10     4    1
    19    19    15   ar
    20     8    13    1
    21     8    14    1
@<TRIPOS>MOLECULE
*****
 19 21 0 0 0
SMALL
GASTEIGER

@<TRIPOS>ATOM
      1 C         140.3567  141.7673  168.4531 C.3     1  UNL1        0.0320
      2 C         140.9072  142.1775  167.1194 C.3     1  UNL1        0.1155
      3 C         140.1878  143.2031  166.2944 C.3     1  UNL1        0.0328
      4 C         140.7383  143.6133  164.9607 C.3     1  UNL1        0.0426
      5 C         140.0189  144.6389  164.1357 C.3     1  UNL1        0.0673
      6 S         140.5694  145.0491  162.8020 S.3     1  UNL1       -0.0807
      7 C         141.8394  144.4337  162.2934 C.2     1  UNL1        0.1483
      8 N         142.3899  144.8439  160.9597 N.pl3   1  UNL1       -0.3380
      9 N         142.5587  143.4081  163.1184 N.2     1  UNL1       -0.2464
     10 C         142.0082  142.9979  164.4521 C.3     1  UNL1        0.1548
     11 C         142.7275  141.9724  165.2771 C.3     1  UNL1        0.1705
     12 O         142.1770  141.5622  166.6108 O.3     1  UNL1       -0.3538
     13 H         141.9177  145.5170  160.4182 H       1  UNL1        0.1442
     14 H         143.2233  144.4400  160.6259 H       1  UNL1        0.1442
     15 C         143.2781  142.3826  163.9434 C.ar    1  UNL1        0.1108
     16 N         144.6591  142.6547  164.4619 N.ar    1  UNL1       -0.2392
     17 C         145.6245  141.8273  163.6659 C.ar    1  UNL1        0.1061
     18 C         144.8400  141.0438  162.6554 C.ar    1  UNL1        0.0572
     19 S         143.3899  141.3870  162.8270 S.2     1  UNL1       -0.0683
@<TRIPOS>BOND
     1     2     1    1
     2     2     3    1
     3     4     3    1
     4     4     5    1
     5     5     6    1
     6     6     7    1
     7     7     8    1
     8     7     9    2
     9     9    10    1
    10    10    15    1
    11    15    16   ar
    12    16    17   ar
    13    17    18   ar
    14    18    19   ar
    15    10    11    1
    16    11    12    1
    17    12     2    1
    18    10     4    1
    19    19    15   ar
    20     8    13    1
    21     8    14    1
@<TRIPOS>MOLECULE
*****
 19 21 0 0 0
SMALL
GASTEIGER

@<TRIPOS>ATOM
      1 C         138.3282  144.7406  165.3619 C.3     1  UNL1        0.0320
      2 C         139.6140  144.0432  165.0296 C.3     1  UNL1        0.1155
      3 C         140.6548  144.7417  164.2056 C.3     1  UNL1        0.0328
      4 C         141.9406  144.0444  163.8733 C.3     1  UNL1        0.0426
      5 C         142.9814  144.7429  163.0493 C.3     1  UNL1        0.0673
      6 S         144.2672  144.0456  162.7170 S.3     1  UNL1       -0.0807
      7 C         144.5122  142.6497  163.2087 C.2     1  UNL1        0.1483
      8 N         145.7980  141.9524  162.8764 N.pl3   1  UNL1       -0.3380
      9 N         143.4715  141.9513  164.0326 N.2     1  UNL1       -0.2464
     10 C         142.1856  142.6486  164.3649 C.3     1  UNL1        0.1548
     11 C         141.1449  141.9502  165.1889 C.3     1  UNL1        0.1705
     12 O         139.8591  142.6475  165.5212 O.3     1  UNL1       -0.3538
     13 H         146.4811  142.4108  162.3356 H       1  UNL1        0.1442
     14 H         145.9589  141.0363  163.1990 H       1  UNL1        0.1442
     15 C         142.4307  141.2528  164.8566 C.ar    1  UNL1        0.1108
     16 N         142.9616  140.8743  166.2074 N.ar    1  UNL1       -0.2392
     17 C         143.0469  139.3780  166.2694 C.ar    1  UNL1        0.1061
     18 C         142.5686  138.8317  164.9568 C.ar    1  UNL1        0.0572
     19 S         142.1878  139.9904  164.0836 S.2     1  UNL1       -0.0683
@<TRIPOS>BOND
     1     2     1    1
     2     2     3    1
     3     4     3    1
     4     4     5    1
     5     5     6    1
     6     6     7    1
     7     7     8    1
     8     7     9    2
     9     9    10    1
    10    10    15    1
    11    15    16   ar
    12    16    17   ar
    13    17    18   ar
    14    18    19   ar
    15    10    11    1
    16    11    12    1
    17    12     2    1
    18    10     4    1
    19    19    15   ar
    20     8    13    1
    21     8    14    1
@<TRIPOS>MOLECULE
*****
 19 21 0 0 0
SMALL
GASTEIGER

@<TRIPOS>ATOM
      1 C         139.4125  140.6699  169.7501 C.3     1  UNL1        0.0320
      2 C         139.8973  140.2487  168.3945 C.3     1  UNL1        0.1155
      3 C         138.9702  139.5371  167.4543 C.3     1  UNL1        0.0328
      4 C         139.4550  139.1159  166.0987 C.3     1  UNL1        0.0426
      5 C         138.5279  138.4042  165.1584 C.3     1  UNL1        0.0673
      6 S         139.0126  137.9830  163.8028 S.3     1  UNL1       -0.0807
      7 C         140.4244  138.2735  163.3875 C.2     1  UNL1        0.1483
      8 N         140.9092  137.8523  162.0319 N.pl3   1  UNL1       -0.3380
      9 N         141.3515  138.9851  164.3277 N.2     1  UNL1       -0.2464
     10 C         140.8667  139.4063  165.6833 C.3     1  UNL1        0.1548
     11 C         141.7938  140.1179  166.6236 C.3     1  UNL1        0.1705
     12 O         141.3090  140.5391  167.9792 O.3     1  UNL1       -0.3538
     13 H         140.3007  137.3852  161.4148 H       1  UNL1        0.1442
     14 H         141.8358  138.0429  161.7593 H       1  UNL1        0.1442
     15 C         142.2785  139.6967  165.2680 C.ar    1  UNL1        0.1108
     16 N         142.8260  141.0393  164.8836 N.ar    1  UNL1       -0.2392
     17 C         144.2766  140.8679  164.5421 C.ar    1  UNL1        0.1061
     18 C         144.6256  139.4194  164.7156 C.ar    1  UNL1        0.0572
     19 S         143.3907  138.6956  165.1642 S.2     1  UNL1       -0.0683
@<TRIPOS>BOND
     1     2     1    1
     2     2     3    1
     3     4     3    1
     4     4     5    1
     5     5     6    1
     6     6     7    1
     7     7     8    1
     8     7     9    2
     9     9    10    1
    10    10    15    1
    11    15    16   ar
    12    16    17   ar
    13    17    18   ar
    14    18    19   ar
    15    10    11    1
    16    11    12    1
    17    12     2    1
    18    10     4    1
    19    19    15   ar
    20     8    13    1
    21     8    14    1
@<TRIPOS>MOLECULE
*****
 19 21 0 0 0
SMALL
GASTEIGER

@<TRIPOS>ATOM
      1 C         143.7995  138.0675  166.4792 C.3     1  UNL1        0.0320
      2 C         142.6486  138.6687  165.7283 C.3     1  UNL1        0.1155
      3 C         141.7969  137.8061  164.8448 C.3     1  UNL1        0.0328
      4 C         140.6460  138.4074  164.0938 C.3     1  UNL1        0.0426
      5 C         139.7944  137.5447  163.2103 C.3     1  UNL1        0.0673
      6 S         138.6435  138.1460  162.4593 S.3     1  UNL1       -0.0807
      7 C         138.3442  139.6099  162.5920 C.2     1  UNL1        0.1483
      8 N         137.1933  140.2111  161.8410 N.pl3   1  UNL1       -0.3380
      9 N         139.1958  140.4724  163.4755 N.2     1  UNL1       -0.2464
     10 C         140.3467  139.8712  164.2264 C.3     1  UNL1        0.1548
     11 C         141.1983  140.7338  165.1099 C.3     1  UNL1        0.1705
     12 O         142.3493  140.1325  165.8609 O.3     1  UNL1       -0.3538
     13 H         136.6343  139.6449  161.2611 H       1  UNL1        0.1442
     14 H         136.9968  141.1719  161.9281 H       1  UNL1        0.1442
     15 C         140.0474  141.3350  164.3590 C.ar    1  UNL1        0.1108
     16 N         139.4326  142.0047  165.5522 N.ar    1  UNL1       -0.2392
     17 C         139.3156  143.4698  165.2523 C.ar    1  UNL1        0.1061
     18 C         139.8581  143.7056  163.8738 C.ar    1  UNL1        0.0572
     19 S         140.3103  142.3862  163.3217 S.2     1  UNL1       -0.0683
@<TRIPOS>BOND
     1     2     1    1
     2     2     3    1
     3     4     3    1
     4     4     5    1
     5     5     6    1
     6     6     7    1
     7     7     8    1
     8     7     9    2
     9     9    10    1
    10    10    15    1
    11    15    16   ar
    12    16    17   ar
    13    17    18   ar
    14    18    19   ar
    15    10    11    1
    16    11    12    1
    17    12     2    1
    18    10     4    1
    19    19    15   ar
    20     8    13    1
    21     8    14    1
@<TRIPOS>MOLECULE
*****
 19 21 0 0 0
SMALL
GASTEIGER

@<TRIPOS>ATOM
      1 C         141.3735  141.4548  171.0675 C.3     1  UNL1        0.0320
      2 C         140.8937  141.4372  169.6464 C.3     1  UNL1        0.1155
      3 C         140.0192  140.3181  169.1638 C.3     1  UNL1        0.0328
      4 C         139.5394  140.3005  167.7428 C.3     1  UNL1        0.0426
      5 C         138.6649  139.1813  167.2603 C.3     1  UNL1        0.0673
      6 S         138.1851  139.1637  165.8392 S.3     1  UNL1       -0.0807
      7 C         138.5798  140.2653  164.9006 C.2     1  UNL1        0.1483
      8 N         138.1000  140.2476  163.4795 N.pl3   1  UNL1       -0.3380
      9 N         139.4543  141.3843  165.3831 N.2     1  UNL1       -0.2464
     10 C         139.9341  141.4020  166.8042 C.3     1  UNL1        0.1548
     11 C         140.8086  142.5211  167.2867 C.3     1  UNL1        0.1705
     12 O         141.2884  142.5387  168.7078 O.3     1  UNL1       -0.3538
     13 H         137.5260  139.5131  163.1628 H       1  UNL1        0.1442
     14 H         138.3590  140.9706  162.8635 H       1  UNL1        0.1442
     15 C         140.3287  142.5034  165.8656 C.ar    1  UNL1        0.1108
     16 N         141.6874  142.7031  165.2622 N.ar    1  UNL1       -0.2392
     17 C         141.6324  143.9218  164.3892 C.ar    1  UNL1        0.1061
     18 C         140.2397  144.4753  164.4533 C.ar    1  UNL1        0.0572
     19 S         139.4340  143.5988  165.3657 S.2     1  UNL1       -0.0683
@<TRIPOS>BOND
     1     2     1    1
     2     2     3    1
     3     4     3    1
     4     4     5    1
     5     5     6    1
     6     6     7    1
     7     7     8    1
     8     7     9    2
     9     9    10    1
    10    10    15    1
    11    15    16   ar
    12    16    17   ar
    13    17    18   ar
    14    18    19   ar
    15    10    11    1
    16    11    12    1
    17    12     2    1
    18    10     4    1
    19    19    15   ar
    20     8    13    1
    21     8    14    1
