@<TRIPOS>MOLECULE
*****
 31 35 0 0 0
SMALL
GASTEIGER

@<TRIPOS>ATOM
      1 C         139.1916  140.0304  165.0335 C.ar    1  UNL1        0.0505
      2 C         138.1564  139.2702  165.8082 C.ar    1  UNL1        0.0178
      3 C         138.2370  139.2056  167.3047 C.ar    1  UNL1        0.0379
      4 C         139.3528  139.9013  168.0264 C.ar    1  UNL1        0.1364
      5 C         140.3882  140.6615  167.2516 C.ar    1  UNL1        0.0367
      6 C         140.3075  140.7261  165.7552 C.ar    1  UNL1        0.0153
      7 C         141.5040  141.3572  167.9733 C.3     1  UNL1        0.1537
      8 C         142.6714  142.0988  168.5539 C.3     1  UNL1        0.2350
      9 O         143.4425  142.7092  167.4214 O.2     1  UNL1       -0.4478
     10 C         142.7517  142.3448  166.1407 C.2     1  UNL1        0.2770
     11 N         143.1833  142.7457  164.7612 N.pl3   1  UNL1       -0.3133
     12 N         141.5537  141.5092  166.4818 N.2     1  UNL1       -0.2204
     13 C         141.5846  141.2926  169.4697 C.3     1  UNL1        0.0666
     14 C         142.2754  141.6570  170.7503 C.3     1  UNL1        0.0061
     15 C         142.8266  142.1332  169.4391 C.3     1  UNL1        0.0061
     16 C         140.5494  140.5324  170.2445 C.3     1  UNL1        0.2074
     17 O         139.4334  139.8367  169.5228 O.3     1  UNL1       -0.4756
     18 H         143.9884  143.2988  164.6385 H       1  UNL1        0.1466
     19 H         142.6613  142.4557  163.9784 H       1  UNL1        0.1466
     20 C         138.2426  141.1242  162.8764 C.2     1  UNL1        0.2688
     21 O         137.4548  142.0890  163.7123 O.2     1  UNL1       -0.2681
     22 N         139.1110  140.0949  163.5370 N.am    1  UNL1       -0.2791
     23 H         139.6281  139.4617  162.9885 H       1  UNL1        0.1552
     24 C         138.0008  141.3179  158.3871 C.ar    1  UNL1        0.2449
     25 C         138.4653  142.5131  159.1654 C.ar    1  UNL1        0.1565
     26 N         138.5459  142.4485  160.6619 N.ar    1  UNL1       -0.2328
     27 C         138.1620  141.1887  161.3800 C.ar    1  UNL1        0.1541
     28 C         137.6975  139.9936  160.6017 C.ar    1  UNL1        0.1258
     29 N         137.6169  140.0582  159.1052 N.ar    1  UNL1       -0.2071
     30 C         136.5873  141.5211  156.2167 C.3     1  UNL1        0.2543
     31 O         137.9202  141.3824  156.8907 O.3     1  UNL1       -0.4551
@<TRIPOS>BOND
     1    30    31    1
     2    31    24    1
     3    24    25   ar
     4    25    26   ar
     5    26    27   ar
     6    27    20    1
     7    20    21    2
     8    20    22   am
     9    22     1    1
    10     1     2   ar
    11     2     3   ar
    12     3     4   ar
    13     4     5   ar
    14     5     6   ar
    15     5     7    1
    16     7     8    1
    17     8     9    1
    18     9    10    1
    19    10    11    1
    20    10    12    2
    21     7    13    1
    22    13    14    1
    23    14    15    1
    24    13    16    1
    25    16    17    1
    26    27    28   ar
    27    28    29   ar
    28    29    24   ar
    29     6     1   ar
    30    12     7    1
    31    15    13    1
    32    17     4    1
    33    22    23    1
    34    11    18    1
    35    11    19    1
@<TRIPOS>MOLECULE
*****
 31 35 0 0 0
SMALL
GASTEIGER

@<TRIPOS>ATOM
      1 C         139.8520  139.5127  164.7353 C.ar    1  UNL1        0.0505
      2 C         138.6045  138.8006  165.1673 C.ar    1  UNL1        0.0178
      3 C         138.1741  138.8460  166.6035 C.ar    1  UNL1        0.0379
      4 C         138.9913  139.6034  167.6078 C.ar    1  UNL1        0.1364
      5 C         140.2389  140.3155  167.1758 C.ar    1  UNL1        0.0367
      6 C         140.6693  140.2701  165.7396 C.ar    1  UNL1        0.0153
      7 C         141.0560  141.0729  168.1801 C.3     1  UNL1        0.1537
      8 C         141.9699  141.8664  169.0661 C.3     1  UNL1        0.2350
      9 O         143.0874  142.4003  168.2199 O.2     1  UNL1       -0.4478
     10 C         142.8641  141.9369  166.8109 C.2     1  UNL1        0.2770
     11 N         143.7422  142.2405  165.6332 N.pl3   1  UNL1       -0.3133
     12 N         141.6087  141.1164  166.7863 N.2     1  UNL1       -0.2204
     13 C         140.6256  141.1182  169.6163 C.3     1  UNL1        0.0666
     14 C         140.8489  141.5817  171.0253 C.3     1  UNL1        0.0061
     15 C         141.8177  141.9666  169.9468 C.3     1  UNL1        0.0061
     16 C         139.3781  140.4062  170.0483 C.3     1  UNL1        0.2074
     17 O         138.5609  139.6487  169.0440 O.3     1  UNL1       -0.4756
     18 H         144.5498  142.7912  165.7504 H       1  UNL1        0.1466
     19 H         143.5108  141.8891  164.7432 H       1  UNL1        0.1466
     20 C         140.9720  138.2488  162.7610 C.2     1  UNL1        0.2688
     21 O         141.2313  137.0756  163.6590 O.2     1  UNL1       -0.2681
     22 N         140.2824  139.4673  163.2991 N.am    1  UNL1       -0.2791
     23 H         140.1123  140.2373  162.7097 H       1  UNL1        0.1552
     24 C         142.2632  138.1128  158.4523 C.ar    1  UNL1        0.2449
     25 C         140.8523  138.4839  158.8011 C.ar    1  UNL1        0.1565
     26 N         140.4219  138.5292  160.2373 N.ar    1  UNL1       -0.2328
     27 C         141.4024  138.2035  161.3247 C.ar    1  UNL1        0.1541
     28 C         142.8133  137.8324  160.9759 C.ar    1  UNL1        0.1258
     29 N         143.2437  137.7870  159.5397 N.ar    1  UNL1       -0.2071
     30 C         143.0941  136.7625  156.3940 C.3     1  UNL1        0.2543
     31 O         142.6936  138.0674  157.0161 O.3     1  UNL1       -0.4551
@<TRIPOS>BOND
     1    30    31    1
     2    31    24    1
     3    24    25   ar
     4    25    26   ar
     5    26    27   ar
     6    27    20    1
     7    20    21    2
     8    20    22   am
     9    22     1    1
    10     1     2   ar
    11     2     3   ar
    12     3     4   ar
    13     4     5   ar
    14     5     6   ar
    15     5     7    1
    16     7     8    1
    17     8     9    1
    18     9    10    1
    19    10    11    1
    20    10    12    2
    21     7    13    1
    22    13    14    1
    23    14    15    1
    24    13    16    1
    25    16    17    1
    26    27    28   ar
    27    28    29   ar
    28    29    24   ar
    29     6     1   ar
    30    12     7    1
    31    15    13    1
    32    17     4    1
    33    22    23    1
    34    11    18    1
    35    11    19    1
@<TRIPOS>MOLECULE
*****
 31 35 0 0 0
SMALL
GASTEIGER

@<TRIPOS>ATOM
      1 C         142.8560  139.6415  164.8122 C.ar    1  UNL1        0.0505
      2 C         143.5622  138.4624  165.4129 C.ar    1  UNL1        0.0178
      3 C         143.5350  138.2482  166.8972 C.ar    1  UNL1        0.0379
      4 C         142.8017  139.2131  167.7810 C.ar    1  UNL1        0.1364
      5 C         142.0955  140.3924  167.1803 C.ar    1  UNL1        0.0367
      6 C         142.1226  140.6066  165.6960 C.ar    1  UNL1        0.0153
      7 C         141.3622  141.3574  168.0641 C.3     1  UNL1        0.1537
      8 C         140.5919  142.4012  168.8171 C.3     1  UNL1        0.2350
      9 O         140.0560  143.3887  167.8234 O.2     1  UNL1       -0.4478
     10 C         140.4950  142.9552  166.4561 C.2     1  UNL1        0.2770
     11 N         140.1818  143.6544  165.1665 N.pl3   1  UNL1       -0.3133
     12 N         141.3023  141.6998  166.6049 N.2     1  UNL1       -0.2204
     13 C         141.3351  141.1432  169.5484 C.3     1  UNL1        0.0666
     14 C         140.8960  141.5767  170.9156 C.3     1  UNL1        0.0061
     15 C         140.5040  142.3811  169.7119 C.3     1  UNL1        0.0061
     16 C         142.0412  139.9640  170.1491 C.3     1  UNL1        0.2074
     17 O         142.7746  138.9989  169.2654 O.3     1  UNL1       -0.4756
     18 H         139.6411  144.4772  165.1714 H       1  UNL1        0.1466
     19 H         140.5168  143.2906  164.3153 H       1  UNL1        0.1466
     20 C         144.1088  140.4215  162.6740 C.2     1  UNL1        0.2688
     21 O         145.3074  140.7732  163.5045 O.2     1  UNL1       -0.2681
     22 N         142.8831  139.8557  163.3278 N.am    1  UNL1       -0.2791
     23 H         142.0965  139.6249  162.7827 H       1  UNL1        0.1552
     24 C         144.1902  141.0641  158.2209 C.ar    1  UNL1        0.2449
     25 C         144.3750  142.2272  159.1500 C.ar    1  UNL1        0.1565
     26 N         144.3479  142.0130  160.6343 N.ar    1  UNL1       -0.2328
     27 C         144.1359  140.6357  161.1896 C.ar    1  UNL1        0.1541
     28 C         143.9511  139.4727  160.2605 C.ar    1  UNL1        0.1258
     29 N         143.9783  139.6869  158.7761 N.ar    1  UNL1       -0.2071
     30 C         144.9330  140.3018  155.8508 C.3     1  UNL1        0.2543
     31 O         144.2173  141.2783  156.7365 O.3     1  UNL1       -0.4551
@<TRIPOS>BOND
     1    30    31    1
     2    31    24    1
     3    24    25   ar
     4    25    26   ar
     5    26    27   ar
     6    27    20    1
     7    20    21    2
     8    20    22   am
     9    22     1    1
    10     1     2   ar
    11     2     3   ar
    12     3     4   ar
    13     4     5   ar
    14     5     6   ar
    15     5     7    1
    16     7     8    1
    17     8     9    1
    18     9    10    1
    19    10    11    1
    20    10    12    2
    21     7    13    1
    22    13    14    1
    23    14    15    1
    24    13    16    1
    25    16    17    1
    26    27    28   ar
    27    28    29   ar
    28    29    24   ar
    29     6     1   ar
    30    12     7    1
    31    15    13    1
    32    17     4    1
    33    22    23    1
    34    11    18    1
    35    11    19    1
@<TRIPOS>MOLECULE
*****
 31 35 0 0 0
SMALL
GASTEIGER

@<TRIPOS>ATOM
      1 C         142.2002  141.2465  164.5263 C.ar    1  UNL1        0.0505
      2 C         143.3840  142.1335  164.7748 C.ar    1  UNL1        0.0178
      3 C         143.6916  142.6015  166.1664 C.ar    1  UNL1        0.0379
      4 C         142.8153  142.1825  167.3094 C.ar    1  UNL1        0.1364
      5 C         141.6314  141.2955  167.0609 C.ar    1  UNL1        0.0367
      6 C         141.3239  140.8275  165.6693 C.ar    1  UNL1        0.0153
      7 C         140.7552  140.8765  168.2039 C.3     1  UNL1        0.1537
      8 C         139.7937  140.3780  169.2417 C.3     1  UNL1        0.2350
      9 O         138.7692  139.5257  168.5532 O.2     1  UNL1       -0.4478
     10 C         139.0976  139.4974  167.0898 C.2     1  UNL1        0.2770
     11 N         138.3328  138.7632  166.0286 N.pl3   1  UNL1       -0.3133
     12 N         140.3249  140.3322  166.8740 N.2     1  UNL1       -0.2204
     13 C         141.0627  141.3444  169.5955 C.3     1  UNL1        0.0666
     14 C         140.7343  141.3727  171.0588 C.3     1  UNL1        0.0061
     15 C         139.8733  140.5904  170.1119 C.3     1  UNL1        0.0061
     16 C         142.2465  142.2314  169.8440 C.3     1  UNL1        0.2074
     17 O         143.1229  142.6504  168.7009 O.3     1  UNL1       -0.4756
     18 H         137.5353  138.2389  166.2703 H       1  UNL1        0.1466
     19 H         138.6284  138.8056  165.0905 H       1  UNL1        0.1466
     20 C         142.6229  139.6006  162.5610 C.2     1  UNL1        0.2688
     21 O         143.6607  138.8906  163.3789 O.2     1  UNL1       -0.2681
     22 N         141.8926  140.7786  163.1347 N.am    1  UNL1       -0.2791
     23 H         141.2115  141.2446  162.5980 H       1  UNL1        0.1552
     24 C         141.7002  138.1967  158.3864 C.ar    1  UNL1        0.2449
     25 C         140.6068  138.7537  159.2492 C.ar    1  UNL1        0.1565
     26 N         140.9144  139.2217  160.6407 N.ar    1  UNL1       -0.2328
     27 C         142.3153  139.1327  161.1695 C.ar    1  UNL1        0.1541
     28 C         143.4086  138.5757  160.3067 C.ar    1  UNL1        0.1258
     29 N         143.1010  138.1077  158.9151 N.ar    1  UNL1       -0.2071
     30 C         141.9224  136.4109  156.5125 C.3     1  UNL1        0.2543
     31 O         141.3926  137.7288  156.9948 O.3     1  UNL1       -0.4551
@<TRIPOS>BOND
     1    30    31    1
     2    31    24    1
     3    24    25   ar
     4    25    26   ar
     5    26    27   ar
     6    27    20    1
     7    20    21    2
     8    20    22   am
     9    22     1    1
    10     1     2   ar
    11     2     3   ar
    12     3     4   ar
    13     4     5   ar
    14     5     6   ar
    15     5     7    1
    16     7     8    1
    17     8     9    1
    18     9    10    1
    19    10    11    1
    20    10    12    2
    21     7    13    1
    22    13    14    1
    23    14    15    1
    24    13    16    1
    25    16    17    1
    26    27    28   ar
    27    28    29   ar
    28    29    24   ar
    29     6     1   ar
    30    12     7    1
    31    15    13    1
    32    17     4    1
    33    22    23    1
    34    11    18    1
    35    11    19    1
@<TRIPOS>MOLECULE
*****
 31 35 0 0 0
SMALL
GASTEIGER

@<TRIPOS>ATOM
      1 C         142.5312  142.8577  164.0308 C.ar    1  UNL1        0.0505
      2 C         143.7848  143.3630  164.6812 C.ar    1  UNL1        0.0178
      3 C         144.0450  143.0781  166.1308 C.ar    1  UNL1        0.0379
      4 C         143.0515  142.2880  166.9299 C.ar    1  UNL1        0.1364
      5 C         141.7977  141.7827  166.2795 C.ar    1  UNL1        0.0367
      6 C         141.5376  142.0676  164.8299 C.ar    1  UNL1        0.0153
      7 C         140.8042  140.9926  167.0786 C.3     1  UNL1        0.1537
      8 C         139.7248  140.1936  167.7466 C.3     1  UNL1        0.2350
      9 O         138.6634  139.9048  166.7269 O.2     1  UNL1       -0.4478
     10 C         139.0868  140.5254  165.4285 C.2     1  UNL1        0.2770
     11 N         138.3215  140.4815  164.1392 N.pl3   1  UNL1       -0.3133
     12 N         140.4099  141.1977  165.6460 N.2     1  UNL1       -0.2204
     13 C         141.0644  140.7078  168.5282 C.3     1  UNL1        0.0666
     14 C         140.6409  140.0872  169.8264 C.3     1  UNL1        0.0061
     15 C         139.7669  139.9599  168.6140 C.3     1  UNL1        0.0061
     16 C         142.3180  141.2130  169.1786 C.3     1  UNL1        0.2074
     17 O         143.3116  142.0032  168.3795 O.3     1  UNL1       -0.4756
     18 H         137.4567  140.0128  164.0958 H       1  UNL1        0.1466
     19 H         138.6839  140.9212  163.3364 H       1  UNL1        0.1466
     20 C         141.7066  144.4691  162.1671 C.2     1  UNL1        0.2688
     21 O         141.4022  145.5109  163.2026 O.2     1  UNL1       -0.2681
     22 N         142.2711  143.1426  162.5813 N.am    1  UNL1       -0.2791
     23 H         142.4709  142.4588  161.9017 H       1  UNL1        0.1552
     24 C         140.9263  145.3236  157.8185 C.ar    1  UNL1        0.2449
     25 C         142.1540  144.5637  158.2249 C.ar    1  UNL1        0.1565
     26 N         142.4142  144.2789  159.6745 N.ar    1  UNL1       -0.2328
     27 C         141.4465  144.7540  160.7176 C.ar    1  UNL1        0.1541
     28 C         140.2188  145.5138  160.3111 C.ar    1  UNL1        0.1258
     29 N         139.9587  145.7987  158.8615 N.ar    1  UNL1       -0.2071
     30 C         139.6399  146.6303  155.9778 C.3     1  UNL1        0.2543
     31 O         140.6661  145.6085  156.3689 O.3     1  UNL1       -0.4551
@<TRIPOS>BOND
     1    30    31    1
     2    31    24    1
     3    24    25   ar
     4    25    26   ar
     5    26    27   ar
     6    27    20    1
     7    20    21    2
     8    20    22   am
     9    22     1    1
    10     1     2   ar
    11     2     3   ar
    12     3     4   ar
    13     4     5   ar
    14     5     6   ar
    15     5     7    1
    16     7     8    1
    17     8     9    1
    18     9    10    1
    19    10    11    1
    20    10    12    2
    21     7    13    1
    22    13    14    1
    23    14    15    1
    24    13    16    1
    25    16    17    1
    26    27    28   ar
    27    28    29   ar
    28    29    24   ar
    29     6     1   ar
    30    12     7    1
    31    15    13    1
    32    17     4    1
    33    22    23    1
    34    11    18    1
    35    11    19    1
@<TRIPOS>MOLECULE
*****
 31 35 0 0 0
SMALL
GASTEIGER

@<TRIPOS>ATOM
      1 C         141.9444  142.0792  164.5245 C.ar    1  UNL1        0.0505
      2 C         143.2075  142.8645  164.7189 C.ar    1  UNL1        0.0178
      3 C         143.7982  143.0074  166.0903 C.ar    1  UNL1        0.0379
      4 C         143.1258  142.3649  167.2672 C.ar    1  UNL1        0.1364
      5 C         141.8627  141.5796  167.0728 C.ar    1  UNL1        0.0367
      6 C         141.2719  141.4367  165.7014 C.ar    1  UNL1        0.0153
      7 C         141.1903  140.9372  168.2497 C.3     1  UNL1        0.1537
      8 C         140.4097  140.2423  169.3257 C.3     1  UNL1        0.2350
      9 O         139.2230  139.5845  168.6861 O.2     1  UNL1       -0.4478
     10 C         139.2701  139.8729  167.2148 C.2     1  UNL1        0.2770
     11 N         138.2759  139.4072  166.1927 N.pl3   1  UNL1       -0.3133
     12 N         140.4860  140.7089  166.9451 N.2     1  UNL1       -0.2204
     13 C         141.7810  141.0800  169.6210 C.3     1  UNL1        0.0666
     14 C         141.7339  140.7916  171.0923 C.3     1  UNL1        0.0061
     15 C         140.6635  140.2557  170.1883 C.3     1  UNL1        0.0061
     16 C         143.0441  141.8653  169.8155 C.3     1  UNL1        0.2074
     17 O         143.7166  142.5078  168.6385 O.3     1  UNL1       -0.4756
     18 H         137.5060  138.8593  166.4689 H       1  UNL1        0.1466
     19 H         138.3934  139.6493  165.2457 H       1  UNL1        0.1466
     20 C         140.2382  142.8404  162.7190 C.2     1  UNL1        0.2688
     21 O         139.7135  143.8874  163.6564 O.2     1  UNL1       -0.2681
     22 N         141.3537  141.9363  163.1531 N.am    1  UNL1       -0.2791
     23 H         141.6980  141.2492  162.5379 H       1  UNL1        0.1552
     24 C         138.4661  142.4118  158.6050 C.ar    1  UNL1        0.2449
     25 C         138.2769  141.3238  159.6201 C.ar    1  UNL1        0.1565
     26 N         138.8676  141.4667  160.9915 N.ar    1  UNL1       -0.2328
     27 C         139.6475  142.6976  161.3477 C.ar    1  UNL1        0.1541
     28 C         139.8366  143.7855  160.3325 C.ar    1  UNL1        0.1258
     29 N         139.2459  143.6426  158.9612 N.ar    1  UNL1       -0.2071
     30 C         137.1963  140.9910  156.8389 C.3     1  UNL1        0.2543
     31 O         137.8753  142.2690  157.2336 O.3     1  UNL1       -0.4551
@<TRIPOS>BOND
     1    30    31    1
     2    31    24    1
     3    24    25   ar
     4    25    26   ar
     5    26    27   ar
     6    27    20    1
     7    20    21    2
     8    20    22   am
     9    22     1    1
    10     1     2   ar
    11     2     3   ar
    12     3     4   ar
    13     4     5   ar
    14     5     6   ar
    15     5     7    1
    16     7     8    1
    17     8     9    1
    18     9    10    1
    19    10    11    1
    20    10    12    2
    21     7    13    1
    22    13    14    1
    23    14    15    1
    24    13    16    1
    25    16    17    1
    26    27    28   ar
    27    28    29   ar
    28    29    24   ar
    29     6     1   ar
    30    12     7    1
    31    15    13    1
    32    17     4    1
    33    22    23    1
    34    11    18    1
    35    11    19    1
@<TRIPOS>MOLECULE
*****
 31 35 0 0 0
SMALL
GASTEIGER

@<TRIPOS>ATOM
      1 C         138.4098  141.7399  161.2325 C.ar    1  UNL1        0.0505
      2 C         137.8974  140.3572  160.9573 C.ar    1  UNL1        0.0178
      3 C         137.8953  139.3273  162.0478 C.ar    1  UNL1        0.0379
      4 C         138.4055  139.6799  163.4135 C.ar    1  UNL1        0.1364
      5 C         138.9179  141.0626  163.6888 C.ar    1  UNL1        0.0367
      6 C         138.9201  142.0926  162.5983 C.ar    1  UNL1        0.0153
      7 C         139.4281  141.4153  165.0545 C.3     1  UNL1        0.1537
      8 C         139.9666  141.9116  166.3636 C.3     1  UNL1        0.2350
      9 O         140.3633  143.3474  166.1872 O.2     1  UNL1       -0.4478
     10 C         140.0700  143.7385  164.7690 C.2     1  UNL1        0.2770
     11 N         140.3121  145.0869  164.1581 N.pl3   1  UNL1       -0.3133
     12 N         139.4920  142.5443  164.0690 N.2     1  UNL1       -0.2204
     13 C         139.4260  140.3853  166.1450 C.3     1  UNL1        0.0666
     14 C         139.7193  139.9943  167.5631 C.3     1  UNL1        0.0061
     15 C         140.0164  141.3872  167.0925 C.3     1  UNL1        0.0061
     16 C         138.9136  139.0027  165.8698 C.3     1  UNL1        0.2074
     17 O         138.4033  138.6500  164.5040 O.3     1  UNL1       -0.4756
     18 H         140.6976  145.8115  164.7018 H       1  UNL1        0.1466
     19 H         140.0855  145.2473  163.2136 H       1  UNL1        0.1466
     20 C         139.5894  142.8830  159.2196 C.2     1  UNL1        0.2688
     21 O         140.7647  141.9662  159.3877 O.2     1  UNL1       -0.2681
     22 N         138.4120  142.7698  160.1420 N.am    1  UNL1       -0.2791
     23 H         137.6406  143.3715  160.0317 H       1  UNL1        0.1552
     24 C         139.5958  145.9728  155.9481 C.ar    1  UNL1        0.2449
     25 C         140.2202  146.2850  157.2759 C.ar    1  UNL1        0.1565
     26 N         140.2180  145.2551  158.3664 N.ar    1  UNL1       -0.2328
     27 C         139.5915  143.9129  158.1291 C.ar    1  UNL1        0.1541
     28 C         138.9672  143.6008  156.8015 C.ar    1  UNL1        0.1258
     29 N         138.9694  144.6308  155.7110 N.ar    1  UNL1       -0.2071
     30 C         139.0949  148.3887  155.1339 C.3     1  UNL1        0.2543
     31 O         139.5980  147.0028  154.8576 O.3     1  UNL1       -0.4551
@<TRIPOS>BOND
     1    30    31    1
     2    31    24    1
     3    24    25   ar
     4    25    26   ar
     5    26    27   ar
     6    27    20    1
     7    20    21    2
     8    20    22   am
     9    22     1    1
    10     1     2   ar
    11     2     3   ar
    12     3     4   ar
    13     4     5   ar
    14     5     6   ar
    15     5     7    1
    16     7     8    1
    17     8     9    1
    18     9    10    1
    19    10    11    1
    20    10    12    2
    21     7    13    1
    22    13    14    1
    23    14    15    1
    24    13    16    1
    25    16    17    1
    26    27    28   ar
    27    28    29   ar
    28    29    24   ar
    29     6     1   ar
    30    12     7    1
    31    15    13    1
    32    17     4    1
    33    22    23    1
    34    11    18    1
    35    11    19    1
@<TRIPOS>MOLECULE
*****
 31 35 0 0 0
SMALL
GASTEIGER

@<TRIPOS>ATOM
      1 C         140.0411  141.0556  164.6468 C.ar    1  UNL1        0.0505
      2 C         138.8348  140.2255  164.9721 C.ar    1  UNL1        0.0178
      3 C         138.5997  139.7634  166.3796 C.ar    1  UNL1        0.0379
      4 C         139.5709  140.1314  167.4619 C.ar    1  UNL1        0.1364
      5 C         140.7772  140.9616  167.1367 C.ar    1  UNL1        0.0367
      6 C         141.0123  141.4237  165.7291 C.ar    1  UNL1        0.0153
      7 C         141.7484  141.3296  168.2189 C.3     1  UNL1        0.1537
      8 C         142.8012  141.7735  169.1907 C.3     1  UNL1        0.2350
      9 O         143.8171  142.5798  168.4372 O.2     1  UNL1       -0.4478
     10 C         143.3921  142.6341  166.9996 C.2     1  UNL1        0.2770
     11 N         144.1183  143.3376  165.8915 N.pl3   1  UNL1       -0.3133
     12 N         142.1136  141.8614  166.8648 N.2     1  UNL1       -0.2204
     13 C         141.5133  140.8675  169.6265 C.3     1  UNL1        0.0666
     14 C         141.9383  140.8132  171.0640 C.3     1  UNL1        0.0061
     15 C         142.7704  141.5592  170.0636 C.3     1  UNL1        0.0061
     16 C         140.3070  140.0374  169.9518 C.3     1  UNL1        0.2074
     17 O         139.3358  139.6694  168.8695 O.3     1  UNL1       -0.4756
     18 H         144.9550  143.8208  166.0803 H       1  UNL1        0.1466
     19 H         143.7581  143.3161  164.9755 H       1  UNL1        0.1466
     20 C         140.0927  142.9634  162.8840 C.2     1  UNL1        0.2688
     21 O         139.6742  143.9471  163.9362 O.2     1  UNL1       -0.2681
     22 N         140.2761  141.5177  163.2392 N.am    1  UNL1       -0.2791
     23 H         140.5509  140.8721  162.5486 H       1  UNL1        0.1552
     24 C         140.7980  144.3497  158.6613 C.ar    1  UNL1        0.2449
     25 C         139.6320  143.4590  158.9734 C.ar    1  UNL1        0.1565
     26 N         139.3969  142.9969  160.3810 N.ar    1  UNL1       -0.2328
     27 C         140.3278  143.4255  161.4764 C.ar    1  UNL1        0.1541
     28 C         141.4937  144.3161  161.1642 C.ar    1  UNL1        0.1258
     29 N         141.7288  144.7782  159.7567 N.ar    1  UNL1       -0.2071
     30 C         142.0355  145.8927  156.9768 C.3     1  UNL1        0.2543
     31 O         141.0331  144.8117  157.2537 O.3     1  UNL1       -0.4551
@<TRIPOS>BOND
     1    30    31    1
     2    31    24    1
     3    24    25   ar
     4    25    26   ar
     5    26    27   ar
     6    27    20    1
     7    20    21    2
     8    20    22   am
     9    22     1    1
    10     1     2   ar
    11     2     3   ar
    12     3     4   ar
    13     4     5   ar
    14     5     6   ar
    15     5     7    1
    16     7     8    1
    17     8     9    1
    18     9    10    1
    19    10    11    1
    20    10    12    2
    21     7    13    1
    22    13    14    1
    23    14    15    1
    24    13    16    1
    25    16    17    1
    26    27    28   ar
    27    28    29   ar
    28    29    24   ar
    29     6     1   ar
    30    12     7    1
    31    15    13    1
    32    17     4    1
    33    22    23    1
    34    11    18    1
    35    11    19    1
@<TRIPOS>MOLECULE
*****
 31 35 0 0 0
SMALL
GASTEIGER

@<TRIPOS>ATOM
      1 C         139.8574  144.3010  161.8539 C.ar    1  UNL1        0.0505
      2 C         140.4257  145.1732  162.9338 C.ar    1  UNL1        0.0178
      3 C         140.5153  144.6622  164.3412 C.ar    1  UNL1        0.0379
      4 C         140.0366  143.2788  164.6687 C.ar    1  UNL1        0.1364
      5 C         139.4683  142.4065  163.5888 C.ar    1  UNL1        0.0367
      6 C         139.3787  142.9176  162.1814 C.ar    1  UNL1        0.0153
      7 C         138.9897  141.0232  163.9162 C.3     1  UNL1        0.1537
      8 C         138.4739  139.6257  164.0918 C.3     1  UNL1        0.2350
      9 O         138.0029  139.1341  162.7552 O.2     1  UNL1       -0.4478
     10 C         138.2275  140.2279  161.7536 C.2     1  UNL1        0.2770
     11 N         137.8997  140.1651  160.2912 N.pl3   1  UNL1       -0.3133
     12 N         138.8373  141.3954  162.4711 N.2     1  UNL1       -0.2204
     13 C         139.0793  140.5121  165.3236 C.3     1  UNL1        0.0666
     14 C         138.8547  139.4184  166.3252 C.3     1  UNL1        0.0061
     15 C         138.4748  139.2099  164.8892 C.3     1  UNL1        0.0061
     16 C         139.6476  141.3844  166.4035 C.3     1  UNL1        0.2074
     17 O         140.1263  142.7678  166.0761 O.3     1  UNL1       -0.4756
     18 H         137.4990  139.3501  159.9110 H       1  UNL1        0.1466
     19 H         138.0853  140.9389  159.7115 H       1  UNL1        0.1466
     20 C         140.9944  144.8538  159.5842 C.2     1  UNL1        0.2688
     21 O         142.3107  144.3843  160.1292 O.2     1  UNL1       -0.2681
     22 N         139.7678  144.8121  160.4465 N.am    1  UNL1       -0.2791
     23 H         138.9038  145.1202  160.0888 H       1  UNL1        0.1552
     24 C         140.7255  146.3870  155.3620 C.ar    1  UNL1        0.2449
     25 C         141.8578  145.4886  155.7630 C.ar    1  UNL1        0.1565
     26 N         141.9475  144.9775  157.1704 N.ar    1  UNL1       -0.2328
     27 C         140.9047  145.3649  158.1768 C.ar    1  UNL1        0.1541
     28 C         139.7725  146.2632  157.7758 C.ar    1  UNL1        0.1258
     29 N         139.6828  146.7743  156.3684 N.ar    1  UNL1       -0.2071
     30 C         140.1906  148.3069  153.6952 C.3     1  UNL1        0.2543
     31 O         140.6359  146.8981  153.9546 O.3     1  UNL1       -0.4551
@<TRIPOS>BOND
     1    30    31    1
     2    31    24    1
     3    24    25   ar
     4    25    26   ar
     5    26    27   ar
     6    27    20    1
     7    20    21    2
     8    20    22   am
     9    22     1    1
    10     1     2   ar
    11     2     3   ar
    12     3     4   ar
    13     4     5   ar
    14     5     6   ar
    15     5     7    1
    16     7     8    1
    17     8     9    1
    18     9    10    1
    19    10    11    1
    20    10    12    2
    21     7    13    1
    22    13    14    1
    23    14    15    1
    24    13    16    1
    25    16    17    1
    26    27    28   ar
    27    28    29   ar
    28    29    24   ar
    29     6     1   ar
    30    12     7    1
    31    15    13    1
    32    17     4    1
    33    22    23    1
    34    11    18    1
    35    11    19    1
