@<TRIPOS>MOLECULE
*****
 32 35 0 0 0
SMALL
GASTEIGER

@<TRIPOS>ATOM
      1 C         142.2030  140.1787  164.2197 C.2     1  UNL1        0.1397
      2 C         142.6898  140.4864  162.8347 C.2     1  UNL1        0.1355
      3 N         142.2258  141.7298  162.1357 N.pl3   1  UNL1       -0.1998
      4 C         141.2751  142.6655  162.8216 C.2     1  UNL1        0.3442
      5 N         140.7884  142.3578  164.2066 N.2     1  UNL1       -0.0580
      6 C         141.2523  141.1143  164.9057 C.3     1  UNL1        0.2692
      7 H         142.5453  141.9318  161.2266 H       1  UNL1        0.2983
      8 C         140.7655  140.8066  166.2908 C.ar    1  UNL1        0.0371
      9 C         139.5081  140.0121  166.4845 C.ar    1  UNL1        0.0030
     10 C         139.0213  139.7043  167.8695 C.ar    1  UNL1        0.0295
     11 C         139.7919  140.1912  169.0609 C.ar    1  UNL1        0.1406
     12 F         139.3051  139.8835  170.4459 F       1  UNL1       -0.2042
     13 C         141.0493  140.9857  168.8671 C.ar    1  UNL1        0.0362
     14 C         141.5361  141.2935  167.4820 C.ar    1  UNL1        0.0372
     15 BR        142.7936  142.0880  167.2883 Br      1  UNL1       -0.0491
     16 C         140.8111  143.9089  162.1226 C.ar    1  UNL1        0.1931
     17 N         140.9644  144.2079  160.6607 N.ar    1  UNL1       -0.2297
     18 C         140.3604  145.5554  160.3973 C.ar    1  UNL1        0.1067
     19 C         139.8339  146.0893  161.6964 C.ar    1  UNL1        0.0577
     20 S         140.1125  145.0717  162.7627 S.2     1  UNL1       -0.0586
     21 C         142.6670  138.9353  164.9187 C.2     1  UNL1        0.3447
     22 O         144.0089  138.9077  165.5885 O.2     1  UNL1       -0.2450
     23 O         141.7891  137.7194  164.9481 O.3     1  UNL1       -0.4455
     24 C         139.6254  137.6359  163.5122 C.3     1  UNL1        0.0513
     25 C         141.0705  137.2831  163.7058 C.3     1  UNL1        0.2089
     26 C         143.6406  139.5507  162.1486 C.3     1  UNL1        0.1405
     27 N         143.4828  139.2609  160.6854 N.3     1  UNL1       -0.2617
     28 C         143.9155  140.2756  159.6690 C.3     1  UNL1        0.1050
     29 C         143.7578  139.9858  158.2057 C.3     1  UNL1        0.1595
     30 O         143.1673  138.6813  157.7589 O.3     1  UNL1       -0.3508
     31 C         142.7346  137.6666  158.7753 C.3     1  UNL1        0.1595
     32 C         142.8923  137.9564  160.2385 C.3     1  UNL1        0.1050
@<TRIPOS>BOND
     1    24    25    1
     2    25    23    1
     3    23    21    1
     4    21    22    2
     5    21     1    1
     6     1     2    2
     7     2    26    1
     8    26    27    1
     9    27    28    1
    10    28    29    1
    11    29    30    1
    12    30    31    1
    13    31    32    1
    14     2     3    1
    15     3     4    1
    16     4    16    1
    17    16    17   ar
    18    17    18   ar
    19    18    19   ar
    20    19    20   ar
    21     4     5    2
    22     5     6    1
    23     6     8    1
    24     8     9   ar
    25     9    10   ar
    26    10    11   ar
    27    11    12    1
    28    11    13   ar
    29    13    14   ar
    30    14    15    1
    31     6     1    1
    32    14     8   ar
    33    32    27    1
    34    20    16   ar
    35     3     7    1
@<TRIPOS>MOLECULE
*****
 32 35 0 0 0
SMALL
GASTEIGER

@<TRIPOS>ATOM
      1 C         141.4560  139.7154  164.0625 C.2     1  UNL1        0.1397
      2 C         141.7258  139.9498  162.6057 C.2     1  UNL1        0.1355
      3 N         141.4188  141.2832  161.9911 N.pl3   1  UNL1       -0.1998
      4 C         140.8420  142.3823  162.8333 C.2     1  UNL1        0.3442
      5 N         140.5722  142.1479  164.2901 N.2     1  UNL1       -0.0580
      6 C         140.8792  140.8145  164.9047 C.3     1  UNL1        0.2692
      7 H         141.5958  141.4370  161.0350 H       1  UNL1        0.2983
      8 C         140.6094  140.5801  166.3616 C.ar    1  UNL1        0.0371
      9 C         141.6507  140.9303  167.3829 C.ar    1  UNL1        0.0030
     10 C         141.3810  140.6959  168.8397 C.ar    1  UNL1        0.0295
     11 C         140.0699  140.1115  169.2752 C.ar    1  UNL1        0.1406
     12 F         139.8002  139.8771  170.7320 F       1  UNL1       -0.2042
     13 C         139.0287  139.7613  168.2538 C.ar    1  UNL1        0.0362
     14 C         139.2985  139.9957  166.7970 C.ar    1  UNL1        0.0372
     15 BR        138.2572  139.6455  165.7756 Br      1  UNL1       -0.0491
     16 C         140.5349  143.7157  162.2188 C.ar    1  UNL1        0.1931
     17 N         140.7917  144.1102  160.7946 N.ar    1  UNL1       -0.2297
     18 C         140.3327  145.5271  160.6160 C.ar    1  UNL1        0.1067
     19 C         139.7922  146.0082  161.9300 C.ar    1  UNL1        0.0577
     20 S         139.9172  144.8887  162.9205 S.2     1  UNL1       -0.0586
     21 C         141.7631  138.3820  164.6771 C.2     1  UNL1        0.3447
     22 O         140.7482  137.2789  164.6212 O.2     1  UNL1       -0.2450
     23 O         143.0850  138.1517  165.3475 O.3     1  UNL1       -0.4455
     24 C         145.0612  139.4294  164.2466 C.3     1  UNL1        0.0513
     25 C         144.1061  139.2496  165.3893 C.3     1  UNL1        0.2089
     26 C         142.3026  138.8507  161.7634 C.3     1  UNL1        0.1405
     27 N         141.7776  138.6128  160.3786 N.3     1  UNL1       -0.2617
     28 C         142.7293  138.3330  159.2535 C.3     1  UNL1        0.1050
     29 C         142.2042  138.0951  157.8686 C.3     1  UNL1        0.1595
     30 O         140.7275  138.1369  157.6090 O.3     1  UNL1       -0.3508
     31 C         139.7758  138.4167  158.7342 C.3     1  UNL1        0.1595
     32 C         140.3008  138.6546  160.1190 C.3     1  UNL1        0.1050
@<TRIPOS>BOND
     1    24    25    1
     2    25    23    1
     3    23    21    1
     4    21    22    2
     5    21     1    1
     6     1     2    2
     7     2    26    1
     8    26    27    1
     9    27    28    1
    10    28    29    1
    11    29    30    1
    12    30    31    1
    13    31    32    1
    14     2     3    1
    15     3     4    1
    16     4    16    1
    17    16    17   ar
    18    17    18   ar
    19    18    19   ar
    20    19    20   ar
    21     4     5    2
    22     5     6    1
    23     6     8    1
    24     8     9   ar
    25     9    10   ar
    26    10    11   ar
    27    11    12    1
    28    11    13   ar
    29    13    14   ar
    30    14    15    1
    31     6     1    1
    32    14     8   ar
    33    32    27    1
    34    20    16   ar
    35     3     7    1
@<TRIPOS>MOLECULE
*****
 32 35 0 0 0
SMALL
GASTEIGER

@<TRIPOS>ATOM
      1 C         140.9303  140.3945  164.6229 C.2     1  UNL1        0.1397
      2 C         140.7243  140.3384  163.1382 C.2     1  UNL1        0.1355
      3 N         140.4909  141.6025  162.3651 N.pl3   1  UNL1       -0.1998
      4 C         140.4634  142.9226  163.0767 C.2     1  UNL1        0.3442
      5 N         140.6695  142.9787  164.5614 N.2     1  UNL1       -0.0580
      6 C         140.9029  141.7146  165.3345 C.3     1  UNL1        0.2692
      7 H         140.3557  141.5656  161.3906 H       1  UNL1        0.2983
      8 C         141.1089  141.7707  166.8193 C.ar    1  UNL1        0.0371
      9 C         139.9819  141.4242  167.7464 C.ar    1  UNL1        0.0030
     10 C         140.1878  141.4803  169.2311 C.ar    1  UNL1        0.0295
     11 C         141.5209  141.8830  169.7888 C.ar    1  UNL1        0.1406
     12 F         141.7269  141.9391  171.2734 F       1  UNL1       -0.2042
     13 C         142.6480  142.2296  168.8616 C.ar    1  UNL1        0.0362
     14 C         142.4419  142.1735  167.3768 C.ar    1  UNL1        0.0372
     15 BR        143.5690  142.5200  166.4496 Br      1  UNL1       -0.0491
     16 C         140.2300  144.1866  162.3036 C.ar    1  UNL1        0.1931
     17 N         139.5861  145.4354  162.8291 N.ar    1  UNL1       -0.2297
     18 C         139.5576  146.4444  161.7196 C.ar    1  UNL1        0.1067
     19 C         140.1839  145.8193  160.5084 C.ar    1  UNL1        0.0577
     20 S         140.5995  144.4240  160.8694 S.2     1  UNL1       -0.0586
     21 C         141.1638  139.1304  165.3960 C.2     1  UNL1        0.3447
     22 O         142.5467  138.7785  165.8582 O.2     1  UNL1       -0.2450
     23 O         140.0144  138.2183  165.7068 O.3     1  UNL1       -0.4455
     24 C         137.7311  138.5512  166.9010 C.3     1  UNL1        0.0513
     25 C         138.6121  138.7508  165.7034 C.3     1  UNL1        0.2089
     26 C         140.7518  139.0182  162.4265 C.3     1  UNL1        0.1405
     27 N         141.6174  138.8371  161.2150 N.3     1  UNL1       -0.2617
     28 C         141.0000  138.4562  159.9021 C.3     1  UNL1        0.1050
     29 C         141.8658  138.2751  158.6906 C.3     1  UNL1        0.1595
     30 O         143.3489  138.4749  158.7920 O.3     1  UNL1       -0.3508
     31 C         143.9664  138.8558  160.1049 C.3     1  UNL1        0.1595
     32 C         143.1007  139.0369  161.3164 C.3     1  UNL1        0.1050
@<TRIPOS>BOND
     1    24    25    1
     2    25    23    1
     3    23    21    1
     4    21    22    2
     5    21     1    1
     6     1     2    2
     7     2    26    1
     8    26    27    1
     9    27    28    1
    10    28    29    1
    11    29    30    1
    12    30    31    1
    13    31    32    1
    14     2     3    1
    15     3     4    1
    16     4    16    1
    17    16    17   ar
    18    17    18   ar
    19    18    19   ar
    20    19    20   ar
    21     4     5    2
    22     5     6    1
    23     6     8    1
    24     8     9   ar
    25     9    10   ar
    26    10    11   ar
    27    11    12    1
    28    11    13   ar
    29    13    14   ar
    30    14    15    1
    31     6     1    1
    32    14     8   ar
    33    32    27    1
    34    20    16   ar
    35     3     7    1
@<TRIPOS>MOLECULE
*****
 32 35 0 0 0
SMALL
GASTEIGER

@<TRIPOS>ATOM
      1 C         142.3796  140.4933  164.2963 C.2     1  UNL1        0.1397
      2 C         142.3478  140.5219  162.7970 C.2     1  UNL1        0.1355
      3 N         141.8206  141.7300  162.0809 N.pl3   1  UNL1       -0.1998
      4 C         141.3252  142.9093  162.8642 C.2     1  UNL1        0.3442
      5 N         141.3570  142.8807  164.3636 N.2     1  UNL1       -0.0580
      6 C         141.8842  141.6726  165.0796 C.3     1  UNL1        0.2692
      7 H         141.7998  141.7488  161.0968 H       1  UNL1        0.2983
      8 C         141.9159  141.6440  166.5791 C.ar    1  UNL1        0.0371
      9 C         143.1144  142.1671  167.3139 C.ar    1  UNL1        0.0030
     10 C         143.1462  142.1385  168.8133 C.ar    1  UNL1        0.0295
     11 C         141.9795  141.5868  169.5779 C.ar    1  UNL1        0.1406
     12 F         142.0113  141.5582  171.0772 F       1  UNL1       -0.2042
     13 C         140.7810  141.0637  168.8430 C.ar    1  UNL1        0.0362
     14 C         140.7492  141.0924  167.3435 C.ar    1  UNL1        0.0372
     15 BR        139.5507  140.5693  166.6087 Br      1  UNL1       -0.0491
     16 C         140.7980  144.1174  162.1481 C.ar    1  UNL1        0.1931
     17 N         140.0760  145.2710  162.7789 N.ar    1  UNL1       -0.2297
     18 C         139.7320  146.2505  161.6962 C.ar    1  UNL1        0.1067
     19 C         140.2415  145.7022  160.3962 C.ar    1  UNL1        0.0577
     20 S         140.9003  144.3839  160.6756 S.2     1  UNL1       -0.0586
     21 C         142.9067  139.2852  165.0124 C.2     1  UNL1        0.3447
     22 O         144.3837  139.1179  165.2138 O.2     1  UNL1       -0.2450
     23 O         141.9570  138.2445  165.5270 O.3     1  UNL1       -0.4455
     24 C         139.9097  137.6918  164.0260 C.3     1  UNL1        0.0513
     25 C         141.2596  137.3258  164.5681 C.3     1  UNL1        0.2089
     26 C         142.8432  139.3425  162.0136 C.3     1  UNL1        0.1405
     27 N         142.5176  139.2210  160.5544 N.3     1  UNL1       -0.2617
     28 C         141.1962  138.6556  160.1254 C.3     1  UNL1        0.1050
     29 C         140.8706  138.5341  158.6661 C.3     1  UNL1        0.1595
     30 O         141.8665  138.9781  157.6360 O.3     1  UNL1       -0.3508
     31 C         143.1879  139.5436  158.0651 C.3     1  UNL1        0.1595
     32 C         143.5135  139.6651  159.5242 C.3     1  UNL1        0.1050
@<TRIPOS>BOND
     1    24    25    1
     2    25    23    1
     3    23    21    1
     4    21    22    2
     5    21     1    1
     6     1     2    2
     7     2    26    1
     8    26    27    1
     9    27    28    1
    10    28    29    1
    11    29    30    1
    12    30    31    1
    13    31    32    1
    14     2     3    1
    15     3     4    1
    16     4    16    1
    17    16    17   ar
    18    17    18   ar
    19    18    19   ar
    20    19    20   ar
    21     4     5    2
    22     5     6    1
    23     6     8    1
    24     8     9   ar
    25     9    10   ar
    26    10    11   ar
    27    11    12    1
    28    11    13   ar
    29    13    14   ar
    30    14    15    1
    31     6     1    1
    32    14     8   ar
    33    32    27    1
    34    20    16   ar
    35     3     7    1
@<TRIPOS>MOLECULE
*****
 32 35 0 0 0
SMALL
GASTEIGER

@<TRIPOS>ATOM
      1 C         139.1482  141.4296  160.8890 C.2     1  UNL1        0.1397
      2 C         139.2721  140.8356  159.5173 C.2     1  UNL1        0.1355
      3 N         139.4091  141.7311  158.3217 N.pl3   1  UNL1       -0.1998
      4 C         139.4222  143.2206  158.4979 C.2     1  UNL1        0.3442
      5 N         139.2982  143.8146  159.8696 N.2     1  UNL1       -0.0580
      6 C         139.1612  142.9192  161.0652 C.3     1  UNL1        0.2692
      7 H         139.4905  141.3412  157.4214 H       1  UNL1        0.2983
      8 C         139.0373  143.5133  162.4370 C.ar    1  UNL1        0.0371
      9 C         137.6836  143.6878  163.0592 C.ar    1  UNL1        0.0030
     10 C         137.5596  144.2819  164.4309 C.ar    1  UNL1        0.0295
     11 C         138.7893  144.7015  165.1805 C.ar    1  UNL1        0.1406
     12 F         138.6653  145.2956  166.5522 F       1  UNL1       -0.2042
     13 C         140.1430  144.5269  164.5583 C.ar    1  UNL1        0.0362
     14 C         140.2669  143.9328  163.1865 C.ar    1  UNL1        0.0372
     15 BR        141.6206  143.7583  162.5643 Br      1  UNL1       -0.0491
     16 C         139.5592  144.1161  157.3024 C.ar    1  UNL1        0.1931
     17 N         140.2329  145.4560  157.2770 N.ar    1  UNL1       -0.2297
     18 C         140.1366  145.9969  155.8812 C.ar    1  UNL1        0.1067
     19 C         139.4034  144.9913  155.0439 C.ar    1  UNL1        0.0577
     20 S         139.0466  143.8289  155.9223 S.2     1  UNL1       -0.0586
     21 C         139.0112  140.5341  162.0846 C.2     1  UNL1        0.3447
     22 O         137.6761  139.9447  162.4310 O.2     1  UNL1       -0.2450
     23 O         140.2092  140.2281  162.9336 O.3     1  UNL1       -0.4455
     24 C         139.4165  140.9583  165.2977 C.3     1  UNL1        0.0513
     25 C         140.0378  139.9343  164.3946 C.3     1  UNL1        0.2089
     26 C         139.2591  139.3460  159.3410 C.3     1  UNL1        0.1405
     27 N         140.5090  138.6291  158.9244 N.3     1  UNL1       -0.2617
     28 C         141.6428  138.4730  159.8940 C.3     1  UNL1        0.1050
     29 C         142.8928  137.7561  159.4773 C.3     1  UNL1        0.1595
     30 O         143.0089  137.1952  158.0910 O.3     1  UNL1       -0.3508
     31 C         141.8752  137.3513  157.1213 C.3     1  UNL1        0.1595
     32 C         140.6252  138.0682  157.5380 C.3     1  UNL1        0.1050
@<TRIPOS>BOND
     1    24    25    1
     2    25    23    1
     3    23    21    1
     4    21    22    2
     5    21     1    1
     6     1     2    2
     7     2    26    1
     8    26    27    1
     9    27    28    1
    10    28    29    1
    11    29    30    1
    12    30    31    1
    13    31    32    1
    14     2     3    1
    15     3     4    1
    16     4    16    1
    17    16    17   ar
    18    17    18   ar
    19    18    19   ar
    20    19    20   ar
    21     4     5    2
    22     5     6    1
    23     6     8    1
    24     8     9   ar
    25     9    10   ar
    26    10    11   ar
    27    11    12    1
    28    11    13   ar
    29    13    14   ar
    30    14    15    1
    31     6     1    1
    32    14     8   ar
    33    32    27    1
    34    20    16   ar
    35     3     7    1
@<TRIPOS>MOLECULE
*****
 32 35 0 0 0
SMALL
GASTEIGER

@<TRIPOS>ATOM
      1 C         142.0189  143.1640  160.5531 C.2     1  UNL1        0.1397
      2 C         142.9274  143.1275  159.3600 C.2     1  UNL1        0.1355
      3 N         142.5776  143.9065  158.1268 N.pl3   1  UNL1       -0.1998
      4 C         141.3193  144.7220  158.0866 C.2     1  UNL1        0.3442
      5 N         140.4109  144.7586  159.2796 N.2     1  UNL1       -0.0580
      6 C         140.7607  143.9796  160.5128 C.3     1  UNL1        0.2692
      7 H         143.1739  143.8824  157.3438 H       1  UNL1        0.2983
      8 C         139.8521  144.0162  161.7059 C.ar    1  UNL1        0.0371
      9 C         140.1098  144.9925  162.8151 C.ar    1  UNL1        0.0030
     10 C         139.2013  145.0291  164.0081 C.ar    1  UNL1        0.0295
     11 C         138.0351  144.0894  164.0919 C.ar    1  UNL1        0.1406
     12 F         137.1266  144.1260  165.2849 F       1  UNL1       -0.2042
     13 C         137.7774  143.1131  162.9827 C.ar    1  UNL1        0.0362
     14 C         138.6860  143.0765  161.7896 C.ar    1  UNL1        0.0372
     15 BR        138.4283  142.1002  160.6804 Br      1  UNL1       -0.0491
     16 C         140.9696  145.5010  156.8534 C.ar    1  UNL1        0.1931
     17 N         139.9262  146.5742  156.7548 N.ar    1  UNL1       -0.2297
     18 C         139.9135  147.0800  155.3427 C.ar    1  UNL1        0.1067
     19 C         140.9491  146.3195  154.5686 C.ar    1  UNL1        0.0577
     20 S         141.6017  145.3436  155.5022 S.2     1  UNL1       -0.0586
     21 C         142.3687  142.3850  161.7863 C.2     1  UNL1        0.3447
     22 O         141.7183  141.0584  162.0450 O.2     1  UNL1       -0.2450
     23 O         143.3688  142.9327  162.7608 O.3     1  UNL1       -0.4455
     24 C         143.6510  145.2135  163.9727 C.3     1  UNL1        0.0513
     25 C         143.7336  144.3872  162.7234 C.3     1  UNL1        0.2089
     26 C         144.1857  142.3119  159.4002 C.3     1  UNL1        0.1405
     27 N         144.8307  141.8647  158.1220 N.3     1  UNL1       -0.2617
     28 C         144.2665  140.6992  157.3649 C.3     1  UNL1        0.1050
     29 C         144.9116  140.2520  156.0866 C.3     1  UNL1        0.1595
     30 O         146.1209  140.9704  155.5655 O.3     1  UNL1       -0.3508
     31 C         146.6851  142.1359  156.3226 C.3     1  UNL1        0.1595
     32 C         146.0400  142.5831  157.6008 C.3     1  UNL1        0.1050
@<TRIPOS>BOND
     1    24    25    1
     2    25    23    1
     3    23    21    1
     4    21    22    2
     5    21     1    1
     6     1     2    2
     7     2    26    1
     8    26    27    1
     9    27    28    1
    10    28    29    1
    11    29    30    1
    12    30    31    1
    13    31    32    1
    14     2     3    1
    15     3     4    1
    16     4    16    1
    17    16    17   ar
    18    17    18   ar
    19    18    19   ar
    20    19    20   ar
    21     4     5    2
    22     5     6    1
    23     6     8    1
    24     8     9   ar
    25     9    10   ar
    26    10    11   ar
    27    11    12    1
    28    11    13   ar
    29    13    14   ar
    30    14    15    1
    31     6     1    1
    32    14     8   ar
    33    32    27    1
    34    20    16   ar
    35     3     7    1
@<TRIPOS>MOLECULE
*****
 32 35 0 0 0
SMALL
GASTEIGER

@<TRIPOS>ATOM
      1 C         142.0348  141.7827  163.7857 C.2     1  UNL1        0.1397
      2 C         141.7933  142.7213  164.9305 C.2     1  UNL1        0.1355
      3 N         141.7116  142.1906  166.3311 N.pl3   1  UNL1       -0.1998
      4 C         141.8715  140.7213  166.5869 C.2     1  UNL1        0.3442
      5 N         142.1130  139.7827  165.4421 N.2     1  UNL1       -0.0580
      6 C         142.1947  140.3134  164.0415 C.3     1  UNL1        0.2692
      7 H         141.5531  142.8067  167.0824 H       1  UNL1        0.2983
      8 C         142.4362  139.3747  162.8967 C.ar    1  UNL1        0.0371
      9 C         141.2918  138.9370  162.0314 C.ar    1  UNL1        0.0030
     10 C         141.5332  137.9983  160.8866 C.ar    1  UNL1        0.0295
     11 C         142.9192  137.4973  160.6071 C.ar    1  UNL1        0.1406
     12 F         143.1607  136.5586  159.4623 F       1  UNL1       -0.2042
     13 C         144.0637  137.9350  161.4723 C.ar    1  UNL1        0.0362
     14 C         143.8222  138.8737  162.6171 C.ar    1  UNL1        0.0372
     15 BR        144.9666  139.3114  163.4823 Br      1  UNL1       -0.0491
     16 C         141.7899  140.1906  167.9875 C.ar    1  UNL1        0.1931
     17 N         142.8382  139.3744  168.6836 N.ar    1  UNL1       -0.2297
     18 C         142.3418  139.0623  170.0642 C.ar    1  UNL1        0.1067
     19 C         140.9866  139.6856  170.2214 C.ar    1  UNL1        0.0577
     20 S         140.6455  140.3830  168.9379 S.2     1  UNL1       -0.0586
     21 C         142.1165  142.3134  162.3851 C.2     1  UNL1        0.3447
     22 O         140.9139  142.2570  161.4903 O.2     1  UNL1       -0.2450
     23 O         143.4007  142.9005  161.8792 O.3     1  UNL1       -0.4455
     24 C         143.7486  141.3228  159.8445 C.3     1  UNL1        0.0513
     25 C         144.3091  142.0815  161.0108 C.3     1  UNL1        0.2089
     26 C         141.6334  144.1908  164.6747 C.3     1  UNL1        0.1405
     27 N         140.5337  144.6810  163.7801 N.3     1  UNL1       -0.2617
     28 C         140.8277  145.7005  162.7198 C.3     1  UNL1        0.1050
     29 C         139.7279  146.1907  161.8253 C.3     1  UNL1        0.1595
     30 O         138.3342  145.6616  161.9910 O.3     1  UNL1       -0.3508
     31 C         138.0402  144.6421  163.0514 C.3     1  UNL1        0.1595
     32 C         139.1399  144.1518  163.9459 C.3     1  UNL1        0.1050
@<TRIPOS>BOND
     1    24    25    1
     2    25    23    1
     3    23    21    1
     4    21    22    2
     5    21     1    1
     6     1     2    2
     7     2    26    1
     8    26    27    1
     9    27    28    1
    10    28    29    1
    11    29    30    1
    12    30    31    1
    13    31    32    1
    14     2     3    1
    15     3     4    1
    16     4    16    1
    17    16    17   ar
    18    17    18   ar
    19    18    19   ar
    20    19    20   ar
    21     4     5    2
    22     5     6    1
    23     6     8    1
    24     8     9   ar
    25     9    10   ar
    26    10    11   ar
    27    11    12    1
    28    11    13   ar
    29    13    14   ar
    30    14    15    1
    31     6     1    1
    32    14     8   ar
    33    32    27    1
    34    20    16   ar
    35     3     7    1
@<TRIPOS>MOLECULE
*****
 32 35 0 0 0
SMALL
GASTEIGER

@<TRIPOS>ATOM
      1 C         139.9259  141.2629  160.9206 C.2     1  UNL1        0.1397
      2 C         140.1208  140.5565  159.6118 C.2     1  UNL1        0.1355
      3 N         139.5675  141.1494  158.3499 N.pl3   1  UNL1       -0.1998
      4 C         138.8194  142.4486  158.3968 C.2     1  UNL1        0.3442
      5 N         138.6245  143.1549  159.7056 N.2     1  UNL1       -0.0580
      6 C         139.1778  142.5621  160.9675 C.3     1  UNL1        0.2692
      7 H         139.6955  140.6858  157.4908 H       1  UNL1        0.2983
      8 C         138.9828  143.2685  162.2764 C.ar    1  UNL1        0.0371
      9 C         137.7440  143.0208  163.0851 C.ar    1  UNL1        0.0030
     10 C         137.5491  143.7271  164.3939 C.ar    1  UNL1        0.0295
     11 C         138.5929  144.6813  164.8940 C.ar    1  UNL1        0.1406
     12 F         138.3979  145.3876  166.2028 F       1  UNL1       -0.2042
     13 C         139.8317  144.9290  164.0853 C.ar    1  UNL1        0.0362
     14 C         140.0266  144.2226  162.7764 C.ar    1  UNL1        0.0372
     15 BR        141.2654  144.4703  161.9677 Br      1  UNL1       -0.0491
     16 C         138.2661  143.0414  157.1349 C.ar    1  UNL1        0.1931
     17 N         136.9431  142.7093  156.5109 N.ar    1  UNL1       -0.2297
     18 C         136.7980  143.5331  155.2657 C.ar    1  UNL1        0.1067
     19 C         138.0313  144.3744  155.1202 C.ar    1  UNL1        0.0577
     20 S         138.9386  144.0705  156.2754 S.2     1  UNL1       -0.0586
     21 C         140.4792  140.6700  162.1825 C.2     1  UNL1        0.3447
     22 O         141.9240  140.8682  162.5336 O.2     1  UNL1       -0.2450
     23 O         139.5878  139.8790  163.0932 O.3     1  UNL1       -0.4455
     24 C         138.0767  138.1351  161.8991 C.3     1  UNL1        0.0513
     25 C         138.2331  139.4404  162.6215 C.3     1  UNL1        0.2089
     26 C         140.8691  139.2573  159.5648 C.3     1  UNL1        0.1405
     27 N         141.9238  139.0365  158.5214 N.3     1  UNL1       -0.2617
     28 C         142.9096  140.1232  158.2097 C.3     1  UNL1        0.1050
     29 C         143.9643  139.9024  157.1662 C.3     1  UNL1        0.1595
     30 O         144.0332  138.5948  156.4345 O.3     1  UNL1       -0.3508
     31 C         143.0475  137.5081  156.7461 C.3     1  UNL1        0.1595
     32 C         141.9927  137.7289  157.7896 C.3     1  UNL1        0.1050
@<TRIPOS>BOND
     1    24    25    1
     2    25    23    1
     3    23    21    1
     4    21    22    2
     5    21     1    1
     6     1     2    2
     7     2    26    1
     8    26    27    1
     9    27    28    1
    10    28    29    1
    11    29    30    1
    12    30    31    1
    13    31    32    1
    14     2     3    1
    15     3     4    1
    16     4    16    1
    17    16    17   ar
    18    17    18   ar
    19    18    19   ar
    20    19    20   ar
    21     4     5    2
    22     5     6    1
    23     6     8    1
    24     8     9   ar
    25     9    10   ar
    26    10    11   ar
    27    11    12    1
    28    11    13   ar
    29    13    14   ar
    30    14    15    1
    31     6     1    1
    32    14     8   ar
    33    32    27    1
    34    20    16   ar
    35     3     7    1
@<TRIPOS>MOLECULE
*****
 32 35 0 0 0
SMALL
GASTEIGER

@<TRIPOS>ATOM
      1 C         141.9635  142.8964  160.2665 C.2     1  UNL1        0.1397
      2 C         141.7085  142.7545  158.7952 C.2     1  UNL1        0.1355
      3 N         142.8558  142.5450  157.8519 N.pl3   1  UNL1       -0.1998
      4 C         144.2581  142.4774  158.3800 C.2     1  UNL1        0.3442
      5 N         144.5132  142.6194  159.8513 N.2     1  UNL1       -0.0580
      6 C         143.3658  142.8289  160.7945 C.3     1  UNL1        0.2692
      7 H         142.6884  142.4518  156.8863 H       1  UNL1        0.2983
      8 C         143.6209  142.9709  162.2659 C.ar    1  UNL1        0.0371
      9 C         143.7629  144.3346  162.8743 C.ar    1  UNL1        0.0030
     10 C         144.0179  144.4766  164.3456 C.ar    1  UNL1        0.0295
     11 C         144.1311  143.2548  165.2086 C.ar    1  UNL1        0.1406
     12 F         144.3861  143.3968  166.6799 F       1  UNL1       -0.2042
     13 C         143.9891  141.8911  164.6002 C.ar    1  UNL1        0.0362
     14 C         143.7340  141.7492  163.1288 C.ar    1  UNL1        0.0372
     15 BR        143.5921  140.3855  162.5204 Br      1  UNL1       -0.0491
     16 C         145.4055  142.2679  157.4367 C.ar    1  UNL1        0.1931
     17 N         146.7690  142.8815  157.5568 N.ar    1  UNL1       -0.2297
     18 C         147.5969  142.4008  156.4020 C.ar    1  UNL1        0.1067
     19 C         146.7451  141.4902  155.5682 C.ar    1  UNL1        0.0577
     20 S         145.3908  141.4081  156.2077 S.2     1  UNL1       -0.0586
     21 C         140.8162  143.1059  161.2098 C.2     1  UNL1        0.3447
     22 O         140.2192  141.9371  161.9359 O.2     1  UNL1       -0.2450
     23 O         140.2659  144.4843  161.4270 O.3     1  UNL1       -0.4455
     24 C         140.2820  144.6962  164.0164 C.3     1  UNL1        0.0513
     25 C         139.5590  144.8165  162.7076 C.3     1  UNL1        0.2089
     26 C         140.3061  142.8220  158.2671 C.3     1  UNL1        0.1405
     27 N         139.8610  144.0129  157.4711 N.3     1  UNL1       -0.2617
     28 C         140.3359  145.3855  157.8457 C.3     1  UNL1        0.1050
     29 C         139.8907  146.5764  157.0496 C.3     1  UNL1        0.1595
     30 O         138.9707  146.3946  155.8789 O.3     1  UNL1       -0.3508
     31 C         138.4959  145.0219  155.5043 C.3     1  UNL1        0.1595
     32 C         138.9410  143.8311  156.3003 C.3     1  UNL1        0.1050
@<TRIPOS>BOND
     1    24    25    1
     2    25    23    1
     3    23    21    1
     4    21    22    2
     5    21     1    1
     6     1     2    2
     7     2    26    1
     8    26    27    1
     9    27    28    1
    10    28    29    1
    11    29    30    1
    12    30    31    1
    13    31    32    1
    14     2     3    1
    15     3     4    1
    16     4    16    1
    17    16    17   ar
    18    17    18   ar
    19    18    19   ar
    20    19    20   ar
    21     4     5    2
    22     5     6    1
    23     6     8    1
    24     8     9   ar
    25     9    10   ar
    26    10    11   ar
    27    11    12    1
    28    11    13   ar
    29    13    14   ar
    30    14    15    1
    31     6     1    1
    32    14     8   ar
    33    32    27    1
    34    20    16   ar
    35     3     7    1
