@<TRIPOS>MOLECULE
*****
 33 37 0 0 0
SMALL
GASTEIGER

@<TRIPOS>ATOM
      1 N         142.8844  136.8927  160.5958 N.3     1  UNL1       -0.3181
      2 C         142.3930  138.1850  161.1777 C.3     1  UNL1        0.1112
      3 H         142.1521  136.4797  160.0182 H       1  UNL1        0.1190
      4 H         143.1254  136.2499  161.3503 H       1  UNL1        0.1190
      5 C         141.0077  138.6689  160.8665 C.3     1  UNL1        0.2222
      6 O         139.8225  138.0183  161.5160 O.3     1  UNL1       -0.4727
      7 C         139.3209  138.5218  162.8369 C.ar    1  UNL1        0.1538
      8 C         139.3718  137.6352  164.0458 C.ar    1  UNL1        0.0382
      9 C         138.8702  138.1388  165.3668 C.ar    1  UNL1        0.0032
     10 C         138.3177  139.5288  165.4788 C.ar    1  UNL1        0.0012
     11 C         138.2668  140.4153  164.2699 C.ar    1  UNL1        0.0145
     12 C         137.7143  141.8053  164.3819 C.2     1  UNL1       -0.0151
     13 C         137.6634  142.6919  163.1730 C.3     1  UNL1        0.1132
     14 C         138.1649  142.1884  161.8521 C.2     1  UNL1        0.2501
     15 O         138.1140  143.0750  160.6432 O.2     1  UNL1       -0.2726
     16 N         138.7174  140.7984  161.7401 N.am    1  UNL1       -0.1759
     17 C         138.7683  139.9119  162.9490 C.ar    1  UNL1        0.1068
     18 C         143.2869  138.9933  162.0706 C.3     1  UNL1        0.0916
     19 N         142.7961  139.4427  163.4150 N.3     1  UNL1       -0.2712
     20 C         142.8661  138.5113  164.5887 C.3     1  UNL1        0.0757
     21 C         142.3754  138.9607  165.9330 C.3     1  UNL1        0.0577
     22 C         141.8146  140.3415  166.1036 C.3     1  UNL1        0.1399
     23 C         141.7445  141.2728  164.9298 C.3     1  UNL1        0.0577
     24 C         142.2353  140.8234  163.5856 C.3     1  UNL1        0.0757
     25 C         141.2314  141.6856  166.4252 C.3     1  UNL1        0.0695
     26 C         140.8772  141.7005  167.8827 C.ar    1  UNL1        0.0175
     27 C         140.2700  142.7571  168.7573 C.ar    1  UNL1        0.0285
     28 C         140.0271  142.4788  170.2111 C.ar    1  UNL1        0.1400
     29 F         139.4200  143.5354  171.0857 F       1  UNL1       -0.2042
     30 C         140.3913  141.1440  170.7903 C.ar    1  UNL1        0.0327
     31 C         140.9984  140.0873  169.9157 C.ar    1  UNL1        0.0389
     32 C         141.2414  140.3655  168.4619 C.ar    1  UNL1        0.1344
     33 O         141.8207  139.5257  167.3624 O.3     1  UNL1       -0.4825
@<TRIPOS>BOND
     1     2     1    1
     2     2     5    1
     3     5     6    1
     4     6     7    1
     5     7     8   ar
     6     8     9   ar
     7     9    10   ar
     8    10    11   ar
     9    11    12    2
    10    12    13    1
    11    13    14    1
    12    14    15    2
    13    14    16    1
    14    16    17    2
    15     2    18    1
    16    18    19    1
    17    19    20    1
    18    20    21    1
    19    21    22    1
    20    22    23    1
    21    23    24    1
    22    22    25    1
    23    25    26    1
    24    26    27   ar
    25    27    28   ar
    26    28    29    1
    27    28    30   ar
    28    30    31   ar
    29    31    32   ar
    30    32    33    1
    31    17     7   ar
    32    24    19    1
    33    32    26   ar
    34    17    11   ar
    35    33    22    1
    36     1     3    1
    37     1     4    1
@<TRIPOS>MOLECULE
*****
 33 37 0 0 0
SMALL
GASTEIGER

@<TRIPOS>ATOM
      1 N         141.5701  145.5301  159.7748 N.3     1  UNL1       -0.3181
      2 C         141.3259  144.0875  160.1055 C.3     1  UNL1        0.1112
      3 H         140.6969  145.9621  159.4727 H       1  UNL1        0.1190
      4 H         142.2588  145.5952  159.0252 H       1  UNL1        0.1190
      5 C         139.9495  143.5082  159.9641 C.3     1  UNL1        0.2222
      6 O         138.8524  143.9474  160.8878 O.3     1  UNL1       -0.4727
      7 C         139.0143  143.7935  162.3711 C.ar    1  UNL1        0.1538
      8 C         139.4227  144.9702  163.2070 C.ar    1  UNL1        0.0382
      9 C         139.5846  144.8163  164.6903 C.ar    1  UNL1        0.0032
     10 C         139.3382  143.4858  165.3377 C.ar    1  UNL1        0.0012
     11 C         138.9299  142.3092  164.5017 C.ar    1  UNL1        0.0145
     12 C         138.6835  140.9787  165.1491 C.2     1  UNL1       -0.0151
     13 C         138.2751  139.8021  164.3132 C.3     1  UNL1        0.1132
     14 C         138.1132  139.9559  162.8299 C.2     1  UNL1        0.2501
     15 O         137.7048  138.7793  161.9940 O.2     1  UNL1       -0.2726
     16 N         138.3596  141.2864  162.1826 N.am    1  UNL1       -0.1759
     17 C         138.7679  142.4630  163.0185 C.ar    1  UNL1        0.1068
     18 C         142.4581  143.2243  160.5777 C.3     1  UNL1        0.0916
     19 N         142.5206  142.7871  162.0113 N.3     1  UNL1       -0.2712
     20 C         142.9053  143.7683  163.0786 C.3     1  UNL1        0.0757
     21 C         142.9677  143.3311  164.5120 C.3     1  UNL1        0.0577
     22 C         142.6455  141.9126  164.8782 C.3     1  UNL1        0.1399
     23 C         142.2608  140.9314  163.8109 C.3     1  UNL1        0.0577
     24 C         142.1984  141.3686  162.3775 C.3     1  UNL1        0.0757
     25 C         142.3520  140.5347  165.3933 C.3     1  UNL1        0.0695
     26 C         142.5376  140.5470  166.8819 C.ar    1  UNL1        0.0175
     27 C         142.3876  139.4757  167.9209 C.ar    1  UNL1        0.0285
     28 C         142.6458  139.7898  169.3647 C.ar    1  UNL1        0.1400
     29 F         142.4958  138.7184  170.4038 F       1  UNL1       -0.2042
     30 C         143.0539  141.1752  169.7696 C.ar    1  UNL1        0.0327
     31 C         143.2039  142.2467  168.7305 C.ar    1  UNL1        0.0389
     32 C         142.9457  141.9326  167.2866 C.ar    1  UNL1        0.1344
     33 O         143.0124  142.7765  166.0484 O.3     1  UNL1       -0.4825
@<TRIPOS>BOND
     1     2     1    1
     2     2     5    1
     3     5     6    1
     4     6     7    1
     5     7     8   ar
     6     8     9   ar
     7     9    10   ar
     8    10    11   ar
     9    11    12    2
    10    12    13    1
    11    13    14    1
    12    14    15    2
    13    14    16    1
    14    16    17    2
    15     2    18    1
    16    18    19    1
    17    19    20    1
    18    20    21    1
    19    21    22    1
    20    22    23    1
    21    23    24    1
    22    22    25    1
    23    25    26    1
    24    26    27   ar
    25    27    28   ar
    26    28    29    1
    27    28    30   ar
    28    30    31   ar
    29    31    32   ar
    30    32    33    1
    31    17     7   ar
    32    24    19    1
    33    32    26   ar
    34    17    11   ar
    35    33    22    1
    36     1     3    1
    37     1     4    1
@<TRIPOS>MOLECULE
*****
 33 37 0 0 0
SMALL
GASTEIGER

@<TRIPOS>ATOM
      1 N         141.7742  145.4946  159.9638 N.3     1  UNL1       -0.3181
      2 C         140.8197  144.9558  160.9878 C.3     1  UNL1        0.1112
      3 H         141.6274  145.0141  159.0761 H       1  UNL1        0.1190
      4 H         142.7323  145.3420  160.2786 H       1  UNL1        0.1190
      5 C         139.8518  143.8724  160.6142 C.3     1  UNL1        0.2222
      6 O         140.1715  142.4406  160.9270 O.3     1  UNL1       -0.4727
      7 C         139.4866  141.7517  162.0699 C.ar    1  UNL1        0.1538
      8 C         138.0738  142.1104  162.4238 C.ar    1  UNL1        0.0382
      9 C         137.3890  141.4214  163.5668 C.ar    1  UNL1        0.0032
     10 C         138.1169  140.3737  164.3557 C.ar    1  UNL1        0.0012
     11 C         139.5297  140.0150  164.0018 C.ar    1  UNL1        0.0145
     12 C         140.2576  138.9673  164.7907 C.2     1  UNL1       -0.0151
     13 C         141.6704  138.6086  164.4367 C.3     1  UNL1        0.1132
     14 C         142.3553  139.2975  163.2938 C.2     1  UNL1        0.2501
     15 O         143.7681  138.9388  162.9398 O.2     1  UNL1       -0.2726
     16 N         141.6274  140.3452  162.5049 N.am    1  UNL1       -0.1759
     17 C         140.2146  140.7039  162.8589 C.ar    1  UNL1        0.1068
     18 C         140.8330  145.5005  162.3853 C.3     1  UNL1        0.0916
     19 N         140.9222  144.5646  163.5542 N.3     1  UNL1       -0.2712
     20 C         139.7696  144.4417  164.5062 C.3     1  UNL1        0.0757
     21 C         139.8588  143.5058  165.6750 C.3     1  UNL1        0.0577
     22 C         141.1006  142.6929  165.8919 C.3     1  UNL1        0.1399
     23 C         142.2532  142.8158  164.9398 C.3     1  UNL1        0.0577
     24 C         142.1640  143.7517  163.7710 C.3     1  UNL1        0.0757
     25 C         142.2715  141.8205  166.2355 C.3     1  UNL1        0.0695
     26 C         141.9292  141.0535  167.4784 C.ar    1  UNL1        0.0175
     27 C         142.6976  140.0439  168.2784 C.ar    1  UNL1        0.0285
     28 C         142.0837  139.4326  169.5029 C.ar    1  UNL1        0.1400
     29 F         142.8521  138.4229  170.3029 F       1  UNL1       -0.2042
     30 C         140.7013  139.8309  169.9273 C.ar    1  UNL1        0.0327
     31 C         139.9327  140.8406  169.1273 C.ar    1  UNL1        0.0389
     32 C         140.5467  141.4519  167.9028 C.ar    1  UNL1        0.1344
     33 O         140.0346  142.4650  166.9224 O.3     1  UNL1       -0.4825
@<TRIPOS>BOND
     1     2     1    1
     2     2     5    1
     3     5     6    1
     4     6     7    1
     5     7     8   ar
     6     8     9   ar
     7     9    10   ar
     8    10    11   ar
     9    11    12    2
    10    12    13    1
    11    13    14    1
    12    14    15    2
    13    14    16    1
    14    16    17    2
    15     2    18    1
    16    18    19    1
    17    19    20    1
    18    20    21    1
    19    21    22    1
    20    22    23    1
    21    23    24    1
    22    22    25    1
    23    25    26    1
    24    26    27   ar
    25    27    28   ar
    26    28    29    1
    27    28    30   ar
    28    30    31   ar
    29    31    32   ar
    30    32    33    1
    31    17     7   ar
    32    24    19    1
    33    32    26   ar
    34    17    11   ar
    35    33    22    1
    36     1     3    1
    37     1     4    1
@<TRIPOS>MOLECULE
*****
 33 37 0 0 0
SMALL
GASTEIGER

@<TRIPOS>ATOM
      1 N         144.4743  138.9250  160.7847 N.3     1  UNL1       -0.3181
      2 C         144.3960  140.2309  161.5185 C.3     1  UNL1        0.1112
      3 H         144.0332  139.0219  159.8701 H       1  UNL1        0.1190
      4 H         143.9910  138.2043  161.3207 H       1  UNL1        0.1190
      5 C         143.7369  141.4146  160.8747 C.3     1  UNL1        0.2222
      6 O         142.2669  141.6478  161.0609 O.3     1  UNL1       -0.4727
      7 C         141.7859  142.5935  162.1212 C.ar    1  UNL1        0.1538
      8 C         142.3775  143.9680  162.2246 C.ar    1  UNL1        0.0382
      9 C         141.8965  144.9138  163.2850 C.ar    1  UNL1        0.0032
     10 C         140.8240  144.4849  164.2419 C.ar    1  UNL1        0.0012
     11 C         140.2325  143.1104  164.1386 C.ar    1  UNL1        0.0145
     12 C         139.1600  142.6816  165.0955 C.2     1  UNL1       -0.0151
     13 C         138.5684  141.3070  164.9921 C.3     1  UNL1        0.1132
     14 C         139.0493  140.3613  163.9318 C.2     1  UNL1        0.2501
     15 O         138.4577  138.9868  163.8285 O.2     1  UNL1       -0.2726
     16 N         140.1218  140.7901  162.9749 N.am    1  UNL1       -0.1759
     17 C         140.7134  142.1647  163.0783 C.ar    1  UNL1        0.1068
     18 C         144.9767  140.3531  162.8961 C.3     1  UNL1        0.0916
     19 N         144.0759  140.5935  164.0712 N.3     1  UNL1       -0.2712
     20 C         143.1328  139.5191  164.5253 C.3     1  UNL1        0.0757
     21 C         142.2320  139.7595  165.7004 C.3     1  UNL1        0.0577
     22 C         142.2744  141.0742  166.4213 C.3     1  UNL1        0.1399
     23 C         143.2175  142.1485  165.9672 C.3     1  UNL1        0.0577
     24 C         144.1183  141.9082  164.7921 C.3     1  UNL1        0.0757
     25 C         142.2052  142.3314  167.2366 C.3     1  UNL1        0.0695
     26 C         141.1727  142.1338  168.3067 C.ar    1  UNL1        0.0175
     27 C         140.6771  143.0316  169.4013 C.ar    1  UNL1        0.0285
     28 C         139.6125  142.5501  170.3419 C.ar    1  UNL1        0.1400
     29 F         139.1169  143.4479  171.4366 F       1  UNL1       -0.2042
     30 C         139.0434  141.1708  170.1879 C.ar    1  UNL1        0.0327
     31 C         139.5390  140.2730  169.0932 C.ar    1  UNL1        0.0389
     32 C         140.6036  140.7544  168.1526 C.ar    1  UNL1        0.1344
     33 O         141.2845  140.0996  166.9874 O.3     1  UNL1       -0.4825
@<TRIPOS>BOND
     1     2     1    1
     2     2     5    1
     3     5     6    1
     4     6     7    1
     5     7     8   ar
     6     8     9   ar
     7     9    10   ar
     8    10    11   ar
     9    11    12    2
    10    12    13    1
    11    13    14    1
    12    14    15    2
    13    14    16    1
    14    16    17    2
    15     2    18    1
    16    18    19    1
    17    19    20    1
    18    20    21    1
    19    21    22    1
    20    22    23    1
    21    23    24    1
    22    22    25    1
    23    25    26    1
    24    26    27   ar
    25    27    28   ar
    26    28    29    1
    27    28    30   ar
    28    30    31   ar
    29    31    32   ar
    30    32    33    1
    31    17     7   ar
    32    24    19    1
    33    32    26   ar
    34    17    11   ar
    35    33    22    1
    36     1     3    1
    37     1     4    1
@<TRIPOS>MOLECULE
*****
 33 37 0 0 0
SMALL
GASTEIGER

@<TRIPOS>ATOM
      1 N         141.7111  145.5215  159.8865 N.3     1  UNL1       -0.3181
      2 C         141.6709  144.0436  160.1402 C.3     1  UNL1        0.1112
      3 H         142.6120  145.7722  159.4792 H       1  UNL1        0.1190
      4 H         141.5851  146.0211  160.7668 H       1  UNL1        0.1190
      5 C         142.8556  143.1909  159.7944 C.3     1  UNL1        0.2222
      6 O         144.1237  143.3120  160.5864 O.3     1  UNL1       -0.4727
      7 C         144.0822  143.2397  162.0840 C.ar    1  UNL1        0.1538
      8 C         144.0784  144.5009  162.8960 C.ar    1  UNL1        0.0382
      9 C         144.0370  144.4286  164.3937 C.ar    1  UNL1        0.0032
     10 C         143.9994  143.0950  165.0794 C.ar    1  UNL1        0.0012
     11 C         144.0032  141.8338  164.2675 C.ar    1  UNL1        0.0145
     12 C         143.9656  140.5003  164.9531 C.2     1  UNL1       -0.0151
     13 C         143.9694  139.2390  164.1412 C.3     1  UNL1        0.1132
     14 C         144.0108  139.3114  162.6435 C.2     1  UNL1        0.2501
     15 O         144.0146  138.0501  161.8316 O.2     1  UNL1       -0.2726
     16 N         144.0484  140.6449  161.9578 N.am    1  UNL1       -0.1759
     17 C         144.0446  141.9061  162.7698 C.ar    1  UNL1        0.1068
     18 C         140.4463  143.4185  160.7396 C.3     1  UNL1        0.0916
     19 N         140.4316  143.0389  162.1907 N.3     1  UNL1       -0.2712
     20 C         140.3915  141.5928  162.5873 C.3     1  UNL1        0.0757
     21 C         140.3769  141.2133  164.0384 C.3     1  UNL1        0.0577
     22 C         140.4024  142.2798  165.0929 C.3     1  UNL1        0.1399
     23 C         140.4425  143.7258  164.6963 C.3     1  UNL1        0.0577
     24 C         140.4571  144.1054  163.2452 C.3     1  UNL1        0.0757
     25 C         140.4244  143.2302  166.2531 C.3     1  UNL1        0.0695
     26 C         140.3988  142.4209  167.5159 C.ar    1  UNL1        0.0175
     27 C         140.4051  142.8175  168.9625 C.ar    1  UNL1        0.0285
     28 C         140.3735  141.7635  170.0293 C.ar    1  UNL1        0.1400
     29 F         140.3798  142.1600  171.4758 F       1  UNL1       -0.2042
     30 C         140.3356  140.3129  169.6495 C.ar    1  UNL1        0.0327
     31 C         140.3293  139.9163  168.2028 C.ar    1  UNL1        0.0389
     32 C         140.3609  140.9703  167.1360 C.ar    1  UNL1        0.1344
     33 O         140.3632  140.8830  165.6386 O.3     1  UNL1       -0.4825
@<TRIPOS>BOND
     1     2     1    1
     2     2     5    1
     3     5     6    1
     4     6     7    1
     5     7     8   ar
     6     8     9   ar
     7     9    10   ar
     8    10    11   ar
     9    11    12    2
    10    12    13    1
    11    13    14    1
    12    14    15    2
    13    14    16    1
    14    16    17    2
    15     2    18    1
    16    18    19    1
    17    19    20    1
    18    20    21    1
    19    21    22    1
    20    22    23    1
    21    23    24    1
    22    22    25    1
    23    25    26    1
    24    26    27   ar
    25    27    28   ar
    26    28    29    1
    27    28    30   ar
    28    30    31   ar
    29    31    32   ar
    30    32    33    1
    31    17     7   ar
    32    24    19    1
    33    32    26   ar
    34    17    11   ar
    35    33    22    1
    36     1     3    1
    37     1     4    1
@<TRIPOS>MOLECULE
*****
 33 37 0 0 0
SMALL
GASTEIGER

@<TRIPOS>ATOM
      1 N         138.0675  140.2130  159.5597 N.3     1  UNL1       -0.3181
      2 C         138.3124  139.6090  160.9107 C.3     1  UNL1        0.1112
      3 H         138.5208  139.6432  158.8453 H       1  UNL1        0.1190
      4 H         138.4512  141.1577  159.5350 H       1  UNL1        0.1190
      5 C         139.1221  138.3523  161.0349 C.3     1  UNL1        0.2222
      6 O         140.6165  138.4301  161.1382 O.3     1  UNL1       -0.4727
      7 C         141.2851  138.2749  162.4719 C.ar    1  UNL1        0.1538
      8 C         140.7567  137.2825  163.4648 C.ar    1  UNL1        0.0382
      9 C         141.4254  137.1273  164.7986 C.ar    1  UNL1        0.0032
     10 C         142.6224  137.9644  165.1393 C.ar    1  UNL1        0.0012
     11 C         143.1509  138.9568  164.1464 C.ar    1  UNL1        0.0145
     12 C         144.3479  139.7940  164.4872 C.2     1  UNL1       -0.0151
     13 C         144.8764  140.7864  163.4942 C.3     1  UNL1        0.1132
     14 C         144.2077  140.9416  162.1605 C.2     1  UNL1        0.2501
     15 O         144.7362  141.9340  161.1676 O.2     1  UNL1       -0.2726
     16 N         143.0107  140.1045  161.8198 N.am    1  UNL1       -0.1759
     17 C         142.4822  139.1121  162.8127 C.ar    1  UNL1        0.1068
     18 C         137.7476  140.2615  162.1375 C.3     1  UNL1        0.0916
     19 N         138.6092  140.4498  163.3510 N.3     1  UNL1       -0.2712
     20 C         138.3646  139.6251  164.5798 C.3     1  UNL1        0.0757
     21 C         139.2261  139.8134  165.7931 C.3     1  UNL1        0.0577
     22 C         140.3321  140.8265  165.7777 C.3     1  UNL1        0.1399
     23 C         140.5767  141.6513  164.5490 C.3     1  UNL1        0.0577
     24 C         139.7152  141.4629  163.3356 C.3     1  UNL1        0.0757
     25 C         141.4694  141.7956  165.9098 C.3     1  UNL1        0.0695
     26 C         142.0478  141.6469  167.2859 C.ar    1  UNL1        0.0175
     27 C         143.1838  142.3405  167.9776 C.ar    1  UNL1        0.0285
     28 C         143.5399  141.9730  169.3876 C.ar    1  UNL1        0.1400
     29 F         144.6759  142.6666  170.0793 F       1  UNL1       -0.2042
     30 C         142.7602  140.9120  170.1059 C.ar    1  UNL1        0.0327
     31 C         141.6241  140.2183  169.4142 C.ar    1  UNL1        0.0389
     32 C         141.2679  140.5857  168.0042 C.ar    1  UNL1        0.1344
     33 O         140.2077  140.0788  167.0722 O.3     1  UNL1       -0.4825
@<TRIPOS>BOND
     1     2     1    1
     2     2     5    1
     3     5     6    1
     4     6     7    1
     5     7     8   ar
     6     8     9   ar
     7     9    10   ar
     8    10    11   ar
     9    11    12    2
    10    12    13    1
    11    13    14    1
    12    14    15    2
    13    14    16    1
    14    16    17    2
    15     2    18    1
    16    18    19    1
    17    19    20    1
    18    20    21    1
    19    21    22    1
    20    22    23    1
    21    23    24    1
    22    22    25    1
    23    25    26    1
    24    26    27   ar
    25    27    28   ar
    26    28    29    1
    27    28    30   ar
    28    30    31   ar
    29    31    32   ar
    30    32    33    1
    31    17     7   ar
    32    24    19    1
    33    32    26   ar
    34    17    11   ar
    35    33    22    1
    36     1     3    1
    37     1     4    1
@<TRIPOS>MOLECULE
*****
 33 37 0 0 0
SMALL
GASTEIGER

@<TRIPOS>ATOM
      1 N         139.6138  140.5536  158.5509 N.3     1  UNL1       -0.3181
      2 C         138.8324  140.9721  159.7609 C.3     1  UNL1        0.1112
      3 H         139.8767  141.3797  158.0134 H       1  UNL1        0.1190
      4 H         139.0410  139.9394  157.9720 H       1  UNL1        0.1190
      5 C         138.5576  142.4255  160.0105 C.3     1  UNL1        0.2222
      6 O         139.5440  143.2542  160.7787 O.3     1  UNL1       -0.4727
      7 C         139.3694  143.4505  162.2555 C.ar    1  UNL1        0.1538
      8 C         138.0445  143.8933  162.8017 C.ar    1  UNL1        0.0382
      9 C         137.8699  144.0896  164.2786 C.ar    1  UNL1        0.0032
     10 C         139.0202  143.8431  165.2091 C.ar    1  UNL1        0.0012
     11 C         140.3452  143.4003  164.6628 C.ar    1  UNL1        0.0145
     12 C         141.4956  143.1538  165.5933 C.2     1  UNL1       -0.0151
     13 C         142.8205  142.7110  165.0471 C.3     1  UNL1        0.1132
     14 C         142.9951  142.5147  163.5703 C.2     1  UNL1        0.2501
     15 O         144.3201  142.0719  163.0240 O.2     1  UNL1       -0.2726
     16 N         141.8448  142.7612  162.6398 N.am    1  UNL1       -0.1759
     17 C         140.5198  143.2040  163.1860 C.ar    1  UNL1        0.1068
     18 C         138.3258  139.9374  160.7214 C.3     1  UNL1        0.0916
     19 N         138.8260  139.9178  162.1355 N.3     1  UNL1       -0.2712
     20 C         140.2592  139.5783  162.4195 C.3     1  UNL1        0.0757
     21 C         140.7593  139.5588  163.8335 C.3     1  UNL1        0.0577
     22 C         139.8262  139.8788  164.9635 C.3     1  UNL1        0.1399
     23 C         138.3931  140.2184  164.6795 C.3     1  UNL1        0.0577
     24 C         137.8930  140.2379  163.2655 C.3     1  UNL1        0.0757
     25 C         139.0150  140.1755  166.1898 C.3     1  UNL1        0.0695
     26 C         139.9128  140.0392  167.3838 C.ar    1  UNL1        0.0175
     27 C         139.6629  140.2128  168.8526 C.ar    1  UNL1        0.0285
     28 C         140.7791  140.0054  169.8329 C.ar    1  UNL1        0.1400
     29 F         140.5292  140.1790  171.3017 F       1  UNL1       -0.2042
     30 C         142.1453  139.6246  169.3445 C.ar    1  UNL1        0.0327
     31 C         142.3952  139.4510  167.8756 C.ar    1  UNL1        0.0389
     32 C         141.2790  139.6584  166.8953 C.ar    1  UNL1        0.1344
     33 O         141.2255  139.5592  165.3995 O.3     1  UNL1       -0.4825
@<TRIPOS>BOND
     1     2     1    1
     2     2     5    1
     3     5     6    1
     4     6     7    1
     5     7     8   ar
     6     8     9   ar
     7     9    10   ar
     8    10    11   ar
     9    11    12    2
    10    12    13    1
    11    13    14    1
    12    14    15    2
    13    14    16    1
    14    16    17    2
    15     2    18    1
    16    18    19    1
    17    19    20    1
    18    20    21    1
    19    21    22    1
    20    22    23    1
    21    23    24    1
    22    22    25    1
    23    25    26    1
    24    26    27   ar
    25    27    28   ar
    26    28    29    1
    27    28    30   ar
    28    30    31   ar
    29    31    32   ar
    30    32    33    1
    31    17     7   ar
    32    24    19    1
    33    32    26   ar
    34    17    11   ar
    35    33    22    1
    36     1     3    1
    37     1     4    1
@<TRIPOS>MOLECULE
*****
 33 37 0 0 0
SMALL
GASTEIGER

@<TRIPOS>ATOM
      1 N         140.1527  140.4130  159.4560 N.3     1  UNL1       -0.3181
      2 C         139.1348  140.5532  160.5488 C.3     1  UNL1        0.1112
      3 H         139.9758  141.1123  158.7348 H       1  UNL1        0.1190
      4 H         140.0875  139.4803  159.0483 H       1  UNL1        0.1190
      5 C         138.0753  141.6110  160.4557 C.3     1  UNL1        0.2222
      6 O         138.4358  143.0533  160.6555 O.3     1  UNL1       -0.4727
      7 C         138.7786  143.5577  162.0259 C.ar    1  UNL1        0.1538
      8 C         137.6889  143.8210  163.0225 C.ar    1  UNL1        0.0382
      9 C         138.0317  144.3255  164.3929 C.ar    1  UNL1        0.0032
     10 C         139.4642  144.5665  164.7667 C.ar    1  UNL1        0.0012
     11 C         140.5539  144.3032  163.7702 C.ar    1  UNL1        0.0145
     12 C         141.9864  144.5442  164.1440 C.2     1  UNL1       -0.0151
     13 C         143.0761  144.2809  163.1474 C.3     1  UNL1        0.1132
     14 C         142.7334  143.7765  161.7770 C.2     1  UNL1        0.2501
     15 O         143.8231  143.5131  160.7805 O.2     1  UNL1       -0.2726
     16 N         141.3009  143.5354  161.4032 N.am    1  UNL1       -0.1759
     17 C         140.2111  143.7988  162.3998 C.ar    1  UNL1        0.1068
     18 C         139.1764  139.6358  161.7347 C.3     1  UNL1        0.0916
     19 N         139.6665  140.1430  163.0586 N.3     1  UNL1       -0.2712
     20 C         138.6882  140.4466  164.1543 C.3     1  UNL1        0.0757
     21 C         139.1783  140.9538  165.4781 C.3     1  UNL1        0.0577
     22 C         140.6469  141.1574  165.7062 C.3     1  UNL1        0.1399
     23 C         141.6252  140.8537  164.6105 C.3     1  UNL1        0.0577
     24 C         141.1351  140.3465  163.2867 C.3     1  UNL1        0.0757
     25 C         142.0779  141.4088  166.0790 C.3     1  UNL1        0.0695
     26 C         142.1075  141.9090  167.4929 C.ar    1  UNL1        0.0175
     27 C         143.2383  142.3194  168.3889 C.ar    1  UNL1        0.0285
     28 C         142.9565  142.7875  169.7858 C.ar    1  UNL1        0.1400
     29 F         144.0873  143.1979  170.6818 F       1  UNL1       -0.2042
     30 C         141.5438  142.8453  170.2868 C.ar    1  UNL1        0.0327
     31 C         140.4129  142.4349  169.3908 C.ar    1  UNL1        0.0389
     32 C         140.6948  141.9668  167.9938 C.ar    1  UNL1        0.1344
     33 O         139.7921  141.5023  166.8896 O.3     1  UNL1       -0.4825
@<TRIPOS>BOND
     1     2     1    1
     2     2     5    1
     3     5     6    1
     4     6     7    1
     5     7     8   ar
     6     8     9   ar
     7     9    10   ar
     8    10    11   ar
     9    11    12    2
    10    12    13    1
    11    13    14    1
    12    14    15    2
    13    14    16    1
    14    16    17    2
    15     2    18    1
    16    18    19    1
    17    19    20    1
    18    20    21    1
    19    21    22    1
    20    22    23    1
    21    23    24    1
    22    22    25    1
    23    25    26    1
    24    26    27   ar
    25    27    28   ar
    26    28    29    1
    27    28    30   ar
    28    30    31   ar
    29    31    32   ar
    30    32    33    1
    31    17     7   ar
    32    24    19    1
    33    32    26   ar
    34    17    11   ar
    35    33    22    1
    36     1     3    1
    37     1     4    1
@<TRIPOS>MOLECULE
*****
 33 37 0 0 0
SMALL
GASTEIGER

@<TRIPOS>ATOM
      1 N         143.4078  138.7681  158.8391 N.3     1  UNL1       -0.3181
      2 C         143.7463  139.1745  160.2428 C.3     1  UNL1        0.1112
      3 H         143.4813  139.5782  158.2235 H       1  UNL1        0.1190
      4 H         142.4552  138.4048  158.8106 H       1  UNL1        0.1190
      5 C         144.1183  140.5963  160.5429 C.3     1  UNL1        0.2222
      6 O         143.1037  141.5277  161.1371 O.3     1  UNL1       -0.4727
      7 C         143.2736  142.0240  162.5424 C.ar    1  UNL1        0.1538
      8 C         144.6489  142.2507  163.0966 C.ar    1  UNL1        0.0382
      9 C         144.8187  142.7471  164.5019 C.ar    1  UNL1        0.0032
     10 C         143.6133  143.0166  165.3530 C.ar    1  UNL1        0.0012
     11 C         142.2380  142.7899  164.7987 C.ar    1  UNL1        0.0145
     12 C         141.0326  143.0594  165.6497 C.2     1  UNL1       -0.0151
     13 C         139.6573  142.8327  165.0955 C.3     1  UNL1        0.1132
     14 C         139.4874  142.3364  163.6902 C.2     1  UNL1        0.2501
     15 O         138.1122  142.1096  163.1360 O.2     1  UNL1       -0.2726
     16 N         140.6929  142.0668  162.8392 N.am    1  UNL1       -0.1759
     17 C         142.0681  142.2936  163.3935 C.ar    1  UNL1        0.1068
     18 C         143.7126  138.1591  161.3463 C.3     1  UNL1        0.0916
     19 N         143.1177  138.5162  162.6762 N.3     1  UNL1       -0.2712
     20 C         144.0108  138.8996  163.8187 C.3     1  UNL1        0.0757
     21 C         143.4158  139.2567  165.1485 C.3     1  UNL1        0.0577
     22 C         141.9278  139.2303  165.3359 C.3     1  UNL1        0.1399
     23 C         141.0347  138.8469  164.1934 C.3     1  UNL1        0.0577
     24 C         141.6297  138.4898  162.8635 C.3     1  UNL1        0.0757
     25 C         140.4659  139.2488  165.6714 C.3     1  UNL1        0.0695
     26 C         140.3249  139.6615  167.1067 C.ar    1  UNL1        0.0175
     27 C         139.1223  139.8524  167.9826 C.ar    1  UNL1        0.0285
     28 C         139.2944  140.2800  169.4101 C.ar    1  UNL1        0.1400
     29 F         138.0919  140.4709  170.2860 F       1  UNL1       -0.2042
     30 C         140.6691  140.5166  169.9616 C.ar    1  UNL1        0.0327
     31 C         141.8718  140.3256  169.0856 C.ar    1  UNL1        0.0389
     32 C         141.6997  139.8981  167.6582 C.ar    1  UNL1        0.1344
     33 O         142.6903  139.6316  166.5638 O.3     1  UNL1       -0.4825
@<TRIPOS>BOND
     1     2     1    1
     2     2     5    1
     3     5     6    1
     4     6     7    1
     5     7     8   ar
     6     8     9   ar
     7     9    10   ar
     8    10    11   ar
     9    11    12    2
    10    12    13    1
    11    13    14    1
    12    14    15    2
    13    14    16    1
    14    16    17    2
    15     2    18    1
    16    18    19    1
    17    19    20    1
    18    20    21    1
    19    21    22    1
    20    22    23    1
    21    23    24    1
    22    22    25    1
    23    25    26    1
    24    26    27   ar
    25    27    28   ar
    26    28    29    1
    27    28    30   ar
    28    30    31   ar
    29    31    32   ar
    30    32    33    1
    31    17     7   ar
    32    24    19    1
    33    32    26   ar
    34    17    11   ar
    35    33    22    1
    36     1     3    1
    37     1     4    1
