@<TRIPOS>MOLECULE
*****
 25 27 0 0 0
SMALL
GASTEIGER

@<TRIPOS>ATOM
      1 O         144.6696  143.0533  164.9419 O.2     1  UNL1       -0.2651
      2 C         143.2895  143.5601  164.6442 C.ar    1  UNL1        0.2807
      3 C         143.0981  144.6909  163.6775 C.ar    1  UNL1        0.0674
      4 C         141.7181  145.1977  163.3798 C.ar    1  UNL1        0.0641
      5 C         140.5294  144.5738  164.0489 C.ar    1  UNL1        0.2424
      6 N         140.7208  143.4430  165.0156 N.ar    1  UNL1       -0.1248
      7 N         142.1008  142.9362  165.3133 N.ar    1  UNL1       -0.1916
      8 C         142.2922  141.8053  166.2802 C.ar    1  UNL1        0.0885
      9 C         142.0595  140.3916  165.8362 C.ar    1  UNL1        0.0217
     10 C         142.2508  139.2608  166.8029 C.ar    1  UNL1        0.0335
     11 C         142.6748  139.5437  168.2137 C.ar    1  UNL1        0.1675
     12 F         142.8661  138.4129  169.1805 F       1  UNL1       -0.2018
     13 C         142.9075  140.9575  168.6577 C.ar    1  UNL1        0.1689
     14 F         143.3315  141.2404  170.0684 F       1  UNL1       -0.2017
     15 C         142.7162  142.0883  167.6908 C.ar    1  UNL1        0.0512
     16 O         139.1494  145.0806  163.7512 O.3     1  UNL1       -0.4592
     17 C         138.1818  144.2206  162.9936 C.3     1  UNL1        0.2086
     18 C         137.6321  142.9755  163.6242 C.3     1  UNL1        0.0647
     19 C         137.6887  141.6721  162.8839 C.3     1  UNL1        0.0759
     20 N         138.0897  140.4181  163.6027 N.3     1  UNL1       -0.2726
     21 C         138.4438  139.1869  162.8224 C.3     1  UNL1        0.0721
     22 C         138.8448  137.9329  163.5412 C.3     1  UNL1        0.0174
     23 C         138.8917  137.9101  165.0402 C.3     1  UNL1        0.0029
     24 C         138.5376  139.1413  165.8206 C.3     1  UNL1        0.0174
     25 C         138.1366  140.3953  165.1018 C.3     1  UNL1        0.0721
@<TRIPOS>BOND
     1     1     2    2
     2     2     3   ar
     3     3     4   ar
     4     4     5   ar
     5     5    16    1
     6    16    17    1
     7    17    18    1
     8    18    19    1
     9    19    20    1
    10    20    21    1
    11    21    22    1
    12    22    23    1
    13    23    24    1
    14    24    25    1
    15     5     6   ar
    16     6     7   ar
    17     7     8    1
    18     8     9   ar
    19     9    10   ar
    20    10    11   ar
    21    11    12    1
    22    11    13   ar
    23    13    14    1
    24    13    15   ar
    25     7     2   ar
    26    15     8   ar
    27    25    20    1
@<TRIPOS>MOLECULE
*****
 25 27 0 0 0
SMALL
GASTEIGER

@<TRIPOS>ATOM
      1 O         138.5713  139.7328  169.1960 O.2     1  UNL1       -0.2651
      2 C         138.9849  139.5975  167.7605 C.ar    1  UNL1        0.2807
      3 C         138.1781  138.7474  166.8245 C.ar    1  UNL1        0.0674
      4 C         138.5917  138.6120  165.3890 C.ar    1  UNL1        0.0641
      5 C         139.8121  139.3269  164.8896 C.ar    1  UNL1        0.2424
      6 N         140.6190  140.1770  165.8256 N.ar    1  UNL1       -0.1248
      7 N         140.2054  140.3123  167.2611 N.ar    1  UNL1       -0.1916
      8 C         141.0123  141.1625  168.1972 C.ar    1  UNL1        0.0885
      9 C         142.3529  140.6881  168.6742 C.ar    1  UNL1        0.0217
     10 C         143.1598  141.5383  169.6102 C.ar    1  UNL1        0.0335
     11 C         142.6261  142.8629  170.0692 C.ar    1  UNL1        0.1675
     12 F         143.4330  143.7130  171.0052 F       1  UNL1       -0.2018
     13 C         141.2854  143.3373  169.5922 C.ar    1  UNL1        0.1689
     14 F         140.7517  144.6618  170.0511 F       1  UNL1       -0.2017
     15 C         140.4785  142.4871  168.6561 C.ar    1  UNL1        0.0512
     16 O         140.2257  139.1916  163.4541 O.3     1  UNL1       -0.4592
     17 C         139.6945  140.1472  162.4272 C.3     1  UNL1        0.2086
     18 C         138.2242  140.1913  162.1333 C.3     1  UNL1        0.0647
     19 C         137.3890  141.3235  162.6536 C.3     1  UNL1        0.0759
     20 N         138.0500  142.5298  163.2519 N.3     1  UNL1       -0.2726
     21 C         138.3055  142.5900  164.7287 C.3     1  UNL1        0.0721
     22 C         138.9664  143.7963  165.3270 C.3     1  UNL1        0.0174
     23 C         139.3720  144.9424  164.4484 C.3     1  UNL1        0.0029
     24 C         139.1165  144.8823  162.9715 C.3     1  UNL1        0.0174
     25 C         138.4555  143.6760  162.3732 C.3     1  UNL1        0.0721
@<TRIPOS>BOND
     1     1     2    2
     2     2     3   ar
     3     3     4   ar
     4     4     5   ar
     5     5    16    1
     6    16    17    1
     7    17    18    1
     8    18    19    1
     9    19    20    1
    10    20    21    1
    11    21    22    1
    12    22    23    1
    13    23    24    1
    14    24    25    1
    15     5     6   ar
    16     6     7   ar
    17     7     8    1
    18     8     9   ar
    19     9    10   ar
    20    10    11   ar
    21    11    12    1
    22    11    13   ar
    23    13    14    1
    24    13    15   ar
    25     7     2   ar
    26    15     8   ar
    27    25    20    1
@<TRIPOS>MOLECULE
*****
 25 27 0 0 0
SMALL
GASTEIGER

@<TRIPOS>ATOM
      1 O         142.9852  138.7577  168.6689 O.2     1  UNL1       -0.2651
      2 C         142.7886  139.2072  167.2514 C.ar    1  UNL1        0.2807
      3 C         143.5243  138.5219  166.1384 C.ar    1  UNL1        0.0674
      4 C         143.3277  138.9714  164.7209 C.ar    1  UNL1        0.0641
      5 C         142.3952  140.1062  164.4165 C.ar    1  UNL1        0.2424
      6 N         141.6595  140.7915  165.5295 N.ar    1  UNL1       -0.1248
      7 N         141.8561  140.3420  166.9470 N.ar    1  UNL1       -0.1916
      8 C         141.1203  141.0274  168.0601 C.ar    1  UNL1        0.0885
      9 C         140.0235  140.3086  168.7883 C.ar    1  UNL1        0.0217
     10 C         139.2877  140.9939  169.9014 C.ar    1  UNL1        0.0335
     11 C         139.6487  142.3981  170.2862 C.ar    1  UNL1        0.1675
     12 F         138.9129  143.0834  171.3993 F       1  UNL1       -0.2018
     13 C         140.7455  143.1169  169.5580 C.ar    1  UNL1        0.1689
     14 F         141.1066  144.5210  169.9428 F       1  UNL1       -0.2017
     15 C         141.4814  142.4315  168.4449 C.ar    1  UNL1        0.0512
     16 O         142.1986  140.5557  162.9990 O.3     1  UNL1       -0.4592
     17 C         141.2024  141.6322  162.6849 C.3     1  UNL1        0.2086
     18 C         140.1068  141.3741  161.6934 C.3     1  UNL1        0.0647
     19 C         138.7984  140.8025  162.1534 C.3     1  UNL1        0.0759
     20 N         138.7516  139.9124  163.3599 N.3     1  UNL1       -0.2726
     21 C         139.2715  138.5079  163.2764 C.3     1  UNL1        0.0721
     22 C         139.2247  137.6178  164.4828 C.3     1  UNL1        0.0174
     23 C         138.6579  138.1322  165.7728 C.3     1  UNL1        0.0029
     24 C         138.1379  139.5368  165.8564 C.3     1  UNL1        0.0174
     25 C         138.1848  140.4269  164.6499 C.3     1  UNL1        0.0721
@<TRIPOS>BOND
     1     1     2    2
     2     2     3   ar
     3     3     4   ar
     4     4     5   ar
     5     5    16    1
     6    16    17    1
     7    17    18    1
     8    18    19    1
     9    19    20    1
    10    20    21    1
    11    21    22    1
    12    22    23    1
    13    23    24    1
    14    24    25    1
    15     5     6   ar
    16     6     7   ar
    17     7     8    1
    18     8     9   ar
    19     9    10   ar
    20    10    11   ar
    21    11    12    1
    22    11    13   ar
    23    13    14    1
    24    13    15   ar
    25     7     2   ar
    26    15     8   ar
    27    25    20    1
@<TRIPOS>MOLECULE
*****
 25 27 0 0 0
SMALL
GASTEIGER

@<TRIPOS>ATOM
      1 O         143.6029  138.0653  166.1700 O.2     1  UNL1       -0.2651
      2 C         143.7233  139.1867  165.1810 C.ar    1  UNL1        0.2807
      3 C         145.0562  139.5127  164.5754 C.ar    1  UNL1        0.0674
      4 C         145.1766  140.6340  163.5863 C.ar    1  UNL1        0.0641
      5 C         143.9640  141.4293  163.2029 C.ar    1  UNL1        0.2424
      6 N         142.6310  141.1032  163.8085 N.ar    1  UNL1       -0.1248
      7 N         142.5106  139.9819  164.7975 N.ar    1  UNL1       -0.1916
      8 C         141.1776  139.6559  165.4031 C.ar    1  UNL1        0.0885
      9 C         140.1897  138.8250  164.6391 C.ar    1  UNL1        0.0217
     10 C         138.8567  138.4989  165.2446 C.ar    1  UNL1        0.0335
     11 C         138.5115  139.0038  166.6143 C.ar    1  UNL1        0.1675
     12 F         137.1784  138.6777  167.2198 F       1  UNL1       -0.2018
     13 C         139.4993  139.8347  167.3784 C.ar    1  UNL1        0.1689
     14 F         139.1540  140.3396  168.7480 F       1  UNL1       -0.2017
     15 C         140.8323  140.1607  166.7727 C.ar    1  UNL1        0.0512
     16 O         144.0843  142.5506  162.2139 O.3     1  UNL1       -0.4592
     17 C         143.0529  143.6393  162.1852 C.3     1  UNL1        0.2086
     18 C         142.9376  144.5937  163.3366 C.3     1  UNL1        0.0647
     19 C         141.6671  145.3623  163.5492 C.3     1  UNL1        0.0759
     20 N         140.3825  144.6316  163.8058 N.3     1  UNL1       -0.2726
     21 C         140.3199  143.5754  164.8691 C.3     1  UNL1        0.0721
     22 C         139.0353  142.8447  165.1256 C.3     1  UNL1        0.0174
     23 C         137.8133  143.1701  164.3190 C.3     1  UNL1        0.0029
     24 C         137.8758  144.2263  163.2557 C.3     1  UNL1        0.0174
     25 C         139.1604  144.9570  162.9991 C.3     1  UNL1        0.0721
@<TRIPOS>BOND
     1     1     2    2
     2     2     3   ar
     3     3     4   ar
     4     4     5   ar
     5     5    16    1
     6    16    17    1
     7    17    18    1
     8    18    19    1
     9    19    20    1
    10    20    21    1
    11    21    22    1
    12    22    23    1
    13    23    24    1
    14    24    25    1
    15     5     6   ar
    16     6     7   ar
    17     7     8    1
    18     8     9   ar
    19     9    10   ar
    20    10    11   ar
    21    11    12    1
    22    11    13   ar
    23    13    14    1
    24    13    15   ar
    25     7     2   ar
    26    15     8   ar
    27    25    20    1
@<TRIPOS>MOLECULE
*****
 25 27 0 0 0
SMALL
GASTEIGER

@<TRIPOS>ATOM
      1 O         138.9436  143.9479  164.5607 O.2     1  UNL1       -0.2651
      2 C         140.4259  143.7224  164.5172 C.ar    1  UNL1        0.2807
      3 C         141.3336  144.7999  164.0024 C.ar    1  UNL1        0.0674
      4 C         142.8159  144.5745  163.9588 C.ar    1  UNL1        0.0641
      5 C         143.3906  143.2715  164.4300 C.ar    1  UNL1        0.2424
      6 N         142.4829  142.1940  164.9448 N.ar    1  UNL1       -0.1248
      7 N         141.0005  142.4195  164.9883 N.ar    1  UNL1       -0.1916
      8 C         140.0928  141.3419  165.5032 C.ar    1  UNL1        0.0885
      9 C         139.2400  140.5602  164.5484 C.ar    1  UNL1        0.0217
     10 C         138.3323  139.4826  165.0631 C.ar    1  UNL1        0.0335
     11 C         138.2775  139.1868  166.5327 C.ar    1  UNL1        0.1675
     12 F         137.3698  138.1092  167.0474 F       1  UNL1       -0.2018
     13 C         139.1303  139.9685  167.4875 C.ar    1  UNL1        0.1689
     14 F         139.0755  139.6727  168.9569 F       1  UNL1       -0.2017
     15 C         140.0380  141.0461  166.9726 C.ar    1  UNL1        0.0512
     16 O         144.8729  143.0461  164.3864 O.3     1  UNL1       -0.4592
     17 C         145.4543  142.0674  163.4096 C.3     1  UNL1        0.2086
     18 C         145.2813  140.5940  163.6312 C.3     1  UNL1        0.0647
     19 C         144.3882  139.7991  162.7253 C.3     1  UNL1        0.0759
     20 N         143.2932  138.9535  163.3050 N.3     1  UNL1       -0.2726
     21 C         142.3436  138.2301  162.3968 C.3     1  UNL1        0.0721
     22 C         141.2487  137.3844  162.9765 C.3     1  UNL1        0.0174
     23 C         141.1034  137.2622  164.4644 C.3     1  UNL1        0.0029
     24 C         142.0531  137.9856  165.3727 C.3     1  UNL1        0.0174
     25 C         143.1480  138.8312  164.7930 C.3     1  UNL1        0.0721
@<TRIPOS>BOND
     1     1     2    2
     2     2     3   ar
     3     3     4   ar
     4     4     5   ar
     5     5    16    1
     6    16    17    1
     7    17    18    1
     8    18    19    1
     9    19    20    1
    10    20    21    1
    11    21    22    1
    12    22    23    1
    13    23    24    1
    14    24    25    1
    15     5     6   ar
    16     6     7   ar
    17     7     8    1
    18     8     9   ar
    19     9    10   ar
    20    10    11   ar
    21    11    12    1
    22    11    13   ar
    23    13    14    1
    24    13    15   ar
    25     7     2   ar
    26    15     8   ar
    27    25    20    1
@<TRIPOS>MOLECULE
*****
 25 27 0 0 0
SMALL
GASTEIGER

@<TRIPOS>ATOM
      1 O         138.5972  139.7135  169.1636 O.2     1  UNL1       -0.2651
      2 C         138.9970  139.5936  167.7229 C.ar    1  UNL1        0.2807
      3 C         138.1848  138.7485  166.7870 C.ar    1  UNL1        0.0674
      4 C         138.5845  138.6286  165.3462 C.ar    1  UNL1        0.0641
      5 C         139.7965  139.3538  164.8413 C.ar    1  UNL1        0.2424
      6 N         140.6088  140.1990  165.7772 N.ar    1  UNL1       -0.1248
      7 N         140.2090  140.3189  167.2180 N.ar    1  UNL1       -0.1916
      8 C         141.0213  141.1641  168.1539 C.ar    1  UNL1        0.0885
      9 C         142.3792  140.7030  168.5938 C.ar    1  UNL1        0.0217
     10 C         143.1915  141.5481  169.5297 C.ar    1  UNL1        0.0335
     11 C         142.6460  142.8545  170.0256 C.ar    1  UNL1        0.1675
     12 F         143.4583  143.6996  170.9614 F       1  UNL1       -0.2018
     13 C         141.2881  143.3156  169.5856 C.ar    1  UNL1        0.1689
     14 F         140.7426  144.6219  170.0815 F       1  UNL1       -0.2017
     15 C         140.4758  142.4704  168.6497 C.ar    1  UNL1        0.0512
     16 O         140.1963  139.2340  163.4006 O.3     1  UNL1       -0.4592
     17 C         140.7620  137.9444  162.8840 C.3     1  UNL1        0.2086
     18 C         141.6759  137.9493  161.6945 C.3     1  UNL1        0.0647
     19 C         143.1627  137.9763  161.8912 C.3     1  UNL1        0.0759
     20 N         143.8098  139.1539  162.5580 N.3     1  UNL1       -0.2726
     21 C         143.9071  139.2089  164.0538 C.3     1  UNL1        0.0721
     22 C         144.5542  140.3865  164.7205 C.3     1  UNL1        0.0174
     23 C         145.1039  141.5091  163.8915 C.3     1  UNL1        0.0029
     24 C         145.0066  141.4543  162.3956 C.3     1  UNL1        0.0174
     25 C         144.3595  140.2767  161.7288 C.3     1  UNL1        0.0721
@<TRIPOS>BOND
     1     1     2    2
     2     2     3   ar
     3     3     4   ar
     4     4     5   ar
     5     5    16    1
     6    16    17    1
     7    17    18    1
     8    18    19    1
     9    19    20    1
    10    20    21    1
    11    21    22    1
    12    22    23    1
    13    23    24    1
    14    24    25    1
    15     5     6   ar
    16     6     7   ar
    17     7     8    1
    18     8     9   ar
    19     9    10   ar
    20    10    11   ar
    21    11    12    1
    22    11    13   ar
    23    13    14    1
    24    13    15   ar
    25     7     2   ar
    26    15     8   ar
    27    25    20    1
@<TRIPOS>MOLECULE
*****
 25 27 0 0 0
SMALL
GASTEIGER

@<TRIPOS>ATOM
      1 O         143.1145  138.7010  168.7300 O.2     1  UNL1       -0.2651
      2 C         142.9310  139.0876  167.2923 C.ar    1  UNL1        0.2807
      3 C         143.6566  138.3370  166.2153 C.ar    1  UNL1        0.0674
      4 C         143.4731  138.7235  164.7777 C.ar    1  UNL1        0.0641
      5 C         142.5639  139.8608  164.4170 C.ar    1  UNL1        0.2424
      6 N         141.8383  140.6114  165.4940 N.ar    1  UNL1       -0.1248
      7 N         142.0218  140.2248  166.9316 N.ar    1  UNL1       -0.1916
      8 C         141.2961  140.9755  168.0087 C.ar    1  UNL1        0.0885
      9 C         141.7958  142.3178  168.4543 C.ar    1  UNL1        0.0217
     10 C         141.0702  143.0684  169.5313 C.ar    1  UNL1        0.0335
     11 C         139.8448  142.4769  170.1626 C.ar    1  UNL1        0.1675
     12 F         139.1191  143.2276  171.2396 F       1  UNL1       -0.2018
     13 C         139.3451  141.1346  169.7170 C.ar    1  UNL1        0.1689
     14 F         138.1197  140.5430  170.3482 F       1  UNL1       -0.2017
     15 C         140.0708  140.3839  168.6399 C.ar    1  UNL1        0.0512
     16 O         142.3804  140.2473  162.9793 O.3     1  UNL1       -0.4592
     17 C         143.1092  141.4344  162.4230 C.3     1  UNL1        0.2086
     18 C         142.7281  142.8191  162.8559 C.3     1  UNL1        0.0647
     19 C         141.5344  143.4933  162.2472 C.3     1  UNL1        0.0759
     20 N         140.3147  143.7545  163.0803 N.3     1  UNL1       -0.2726
     21 C         138.9714  143.8803  162.4247 C.3     1  UNL1        0.0721
     22 C         137.7517  144.1416  163.2578 C.3     1  UNL1        0.0174
     23 C         137.8753  144.2770  164.7466 C.3     1  UNL1        0.0029
     24 C         139.2185  144.1512  165.4022 C.3     1  UNL1        0.0174
     25 C         140.4382  143.8900  164.5691 C.3     1  UNL1        0.0721
@<TRIPOS>BOND
     1     1     2    2
     2     2     3   ar
     3     3     4   ar
     4     4     5   ar
     5     5    16    1
     6    16    17    1
     7    17    18    1
     8    18    19    1
     9    19    20    1
    10    20    21    1
    11    21    22    1
    12    22    23    1
    13    23    24    1
    14    24    25    1
    15     5     6   ar
    16     6     7   ar
    17     7     8    1
    18     8     9   ar
    19     9    10   ar
    20    10    11   ar
    21    11    12    1
    22    11    13   ar
    23    13    14    1
    24    13    15   ar
    25     7     2   ar
    26    15     8   ar
    27    25    20    1
@<TRIPOS>MOLECULE
*****
 25 27 0 0 0
SMALL
GASTEIGER

@<TRIPOS>ATOM
      1 O         142.7030  138.8783  165.3989 O.2     1  UNL1       -0.2651
      2 C         142.0348  140.0950  164.8303 C.ar    1  UNL1        0.2807
      3 C         141.8435  140.2218  163.3480 C.ar    1  UNL1        0.0674
      4 C         141.1753  141.4385  162.7794 C.ar    1  UNL1        0.0641
      5 C         140.6985  142.5283  163.6931 C.ar    1  UNL1        0.2424
      6 N         140.8898  142.4014  165.1754 N.ar    1  UNL1       -0.1248
      7 N         141.5580  141.1848  165.7440 N.ar    1  UNL1       -0.1916
      8 C         141.7493  141.0580  167.2264 C.ar    1  UNL1        0.0885
      9 C         140.7797  140.2547  168.0417 C.ar    1  UNL1        0.0217
     10 C         140.9710  140.1278  169.5240 C.ar    1  UNL1        0.0335
     11 C         142.1318  140.8043  170.1911 C.ar    1  UNL1        0.1675
     12 F         142.3231  140.6774  171.6734 F       1  UNL1       -0.2018
     13 C         143.1014  141.6075  169.3758 C.ar    1  UNL1        0.1689
     14 F         144.2622  142.2840  170.0428 F       1  UNL1       -0.2017
     15 C         142.9101  141.7344  167.8934 C.ar    1  UNL1        0.0512
     16 O         140.0303  143.7449  163.1245 O.3     1  UNL1       -0.4592
     17 C         138.5613  143.7216  162.8222 C.3     1  UNL1        0.2086
     18 C         137.6615  142.7653  163.5473 C.3     1  UNL1        0.0647
     19 C         137.3292  141.4370  162.9347 C.3     1  UNL1        0.0759
     20 N         137.9140  140.1798  163.5069 N.3     1  UNL1       -0.2726
     21 C         138.1227  140.0557  164.9871 C.3     1  UNL1        0.0721
     22 C         138.7075  138.7985  165.5594 C.3     1  UNL1        0.0174
     23 C         139.0836  137.6654  164.6514 C.3     1  UNL1        0.0029
     24 C         138.8749  137.7894  163.1711 C.3     1  UNL1        0.0174
     25 C         138.2901  139.0466  162.5989 C.3     1  UNL1        0.0721
@<TRIPOS>BOND
     1     1     2    2
     2     2     3   ar
     3     3     4   ar
     4     4     5   ar
     5     5    16    1
     6    16    17    1
     7    17    18    1
     8    18    19    1
     9    19    20    1
    10    20    21    1
    11    21    22    1
    12    22    23    1
    13    23    24    1
    14    24    25    1
    15     5     6   ar
    16     6     7   ar
    17     7     8    1
    18     8     9   ar
    19     9    10   ar
    20    10    11   ar
    21    11    12    1
    22    11    13   ar
    23    13    14    1
    24    13    15   ar
    25     7     2   ar
    26    15     8   ar
    27    25    20    1
@<TRIPOS>MOLECULE
*****
 25 27 0 0 0
SMALL
GASTEIGER

@<TRIPOS>ATOM
      1 O         144.1847  144.3567  164.6695 O.2     1  UNL1       -0.2651
      2 C         144.1156  142.9092  164.2823 C.ar    1  UNL1        0.2807
      3 C         145.3698  142.1670  163.9272 C.ar    1  UNL1        0.0674
      4 C         145.3007  140.7195  163.5401 C.ar    1  UNL1        0.0641
      5 C         143.9773  140.0141  163.5080 C.ar    1  UNL1        0.2424
      6 N         142.7231  140.7562  163.8630 N.ar    1  UNL1       -0.1248
      7 N         142.7922  142.2038  164.2502 N.ar    1  UNL1       -0.1916
      8 C         141.5379  142.9459  164.6052 C.ar    1  UNL1        0.0885
      9 C         141.0046  142.8902  166.0061 C.ar    1  UNL1        0.0217
     10 C         139.7503  143.6323  166.3612 C.ar    1  UNL1        0.0335
     11 C         139.0293  144.4301  165.3154 C.ar    1  UNL1        0.1675
     12 F         137.7751  145.1722  165.6705 F       1  UNL1       -0.2018
     13 C         139.5626  144.4858  163.9145 C.ar    1  UNL1        0.1689
     14 F         138.8417  145.2836  162.8687 F       1  UNL1       -0.2017
     15 C         140.8169  143.7437  163.5594 C.ar    1  UNL1        0.0512
     16 O         143.9082  138.5666  163.1208 O.3     1  UNL1       -0.4592
     17 C         143.1900  138.1586  161.8688 C.3     1  UNL1        0.2086
     18 C         141.7565  137.7218  161.9349 C.3     1  UNL1        0.0647
     19 C         141.1000  137.5020  163.2656 C.3     1  UNL1        0.0759
     20 N         140.1491  138.5258  163.8111 N.3     1  UNL1       -0.2726
     21 C         139.7955  138.5196  165.2687 C.3     1  UNL1        0.0721
     22 C         138.8446  139.5434  165.8142 C.3     1  UNL1        0.0174
     23 C         138.2473  140.5734  164.9020 C.3     1  UNL1        0.0029
     24 C         138.6008  140.5797  163.4442 C.3     1  UNL1        0.0174
     25 C         139.5518  139.5558  162.8987 C.3     1  UNL1        0.0721
@<TRIPOS>BOND
     1     1     2    2
     2     2     3   ar
     3     3     4   ar
     4     4     5   ar
     5     5    16    1
     6    16    17    1
     7    17    18    1
     8    18    19    1
     9    19    20    1
    10    20    21    1
    11    21    22    1
    12    22    23    1
    13    23    24    1
    14    24    25    1
    15     5     6   ar
    16     6     7   ar
    17     7     8    1
    18     8     9   ar
    19     9    10   ar
    20    10    11   ar
    21    11    12    1
    22    11    13   ar
    23    13    14    1
    24    13    15   ar
    25     7     2   ar
    26    15     8   ar
    27    25    20    1
