@<TRIPOS>MOLECULE
*****
 28 30 0 0 0
SMALL
GASTEIGER

@<TRIPOS>ATOM
      1 C         139.7663  142.6431  164.8688 C.ar    1  UNL1        0.0045
      2 C         138.6128  142.9261  163.9527 C.ar    1  UNL1        0.0004
      3 C         138.7700  143.9085  162.8301 C.ar    1  UNL1        0.0076
      4 C         140.0808  144.6079  162.6236 C.ar    1  UNL1        0.0870
      5 C         141.2343  144.3249  163.5396 C.ar    1  UNL1        0.1427
      6 C         141.0771  143.3425  164.6622 C.ar    1  UNL1        0.0371
      7 C         140.1589  140.9087  168.4167 C.ar    1  UNL1        0.0074
      8 C         139.2947  139.6960  168.2366 C.ar    1  UNL1        0.0953
      9 N         138.5876  139.4658  166.9339 N.ar    1  UNL1       -0.2426
     10 C         138.7448  140.4481  165.8113 C.ar    1  UNL1        0.0988
     11 C         139.6091  141.6608  165.9914 C.ar    1  UNL1        0.0190
     12 C         140.3162  141.8911  167.2941 C.ar    1  UNL1       -0.0005
     13 C         142.4097  138.9570  169.7489 C.3     1  UNL1        0.0499
     14 C         141.9006  140.2419  170.3317 C.2     1  UNL1        0.0677
     15 N         142.3366  140.8554  171.6292 N.2     1  UNL1       -0.1566
     16 N         141.5716  142.1316  171.8188 N.2     1  UNL1       -0.1566
     17 C         140.6627  142.3069  170.6385 C.2     1  UNL1        0.0677
     18 C         139.7166  143.4495  170.4163 C.3     1  UNL1        0.0499
     19 C         140.8660  141.1390  169.7194 C.3     1  UNL1        0.0992
     20 C         140.2380  145.5903  161.5010 C.2     1  UNL1        0.2457
     21 N         141.4644  145.5533  160.6382 N.am    1  UNL1       -0.3252
     22 O         139.1687  146.6096  161.2411 O.2     1  UNL1       -0.2703
     23 H         142.1662  144.8842  160.8088 H       1  UNL1        0.1453
     24 H         141.5676  146.1980  159.9014 H       1  UNL1        0.1453
     25 O         142.5452  145.0243  163.3331 O.3     1  UNL1       -0.4790
     26 C         143.8316  144.2721  163.5037 C.3     1  UNL1        0.1661
     27 C         144.5137  143.6722  162.3100 C.3     1  UNL1        0.0472
     28 C         144.4361  144.1196  164.8681 C.3     1  UNL1        0.0472
@<TRIPOS>BOND
     1    13    14    1
     2    14    15    2
     3    15    16    1
     4    16    17    2
     5    17    18    1
     6    17    19    1
     7    19     7    1
     8     7     8   ar
     9     8     9   ar
    10     9    10   ar
    11    10    11   ar
    12    11     1    1
    13     1     2   ar
    14     2     3   ar
    15     3     4   ar
    16     4    20    1
    17    20    21   am
    18    20    22    2
    19     4     5   ar
    20     5    25    1
    21    25    26    1
    22    26    27    1
    23    26    28    1
    24     5     6   ar
    25    11    12   ar
    26    19    14    1
    27    12     7   ar
    28     6     1   ar
    29    21    23    1
    30    21    24    1
@<TRIPOS>MOLECULE
*****
 28 30 0 0 0
SMALL
GASTEIGER

@<TRIPOS>ATOM
      1 C         141.2182  142.6569  164.4716 C.ar    1  UNL1        0.0045
      2 C         142.1720  143.7853  164.2125 C.ar    1  UNL1        0.0004
      3 C         141.8921  144.7665  163.1130 C.ar    1  UNL1        0.0076
      4 C         140.6585  144.6193  162.2726 C.ar    1  UNL1        0.0870
      5 C         139.7047  143.4910  162.5316 C.ar    1  UNL1        0.1427
      6 C         139.9846  142.5098  163.6311 C.ar    1  UNL1        0.0371
      7 C         141.6339  141.1129  168.1038 C.ar    1  UNL1        0.0074
      8 C         142.0579  139.7133  167.7701 C.ar    1  UNL1        0.0953
      9 N         142.2020  139.2950  166.3368 N.ar    1  UNL1       -0.2426
     10 C         141.9221  140.2762  165.2373 C.ar    1  UNL1        0.0988
     11 C         141.4981  141.6757  165.5711 C.ar    1  UNL1        0.0190
     12 C         141.3540  142.0941  167.0043 C.ar    1  UNL1       -0.0005
     13 C         138.9846  140.7027  169.9647 C.3     1  UNL1        0.0499
     14 C         140.2720  141.3428  170.3924 C.2     1  UNL1        0.0677
     15 N         140.5677  141.9067  171.7506 N.2     1  UNL1       -0.1566
     16 N         141.9683  142.4437  171.7346 N.2     1  UNL1       -0.1566
     17 C         142.5380  142.2117  170.3666 C.2     1  UNL1        0.0677
     18 C         143.9145  142.5932  169.9085 C.3     1  UNL1        0.0499
     19 C         141.4897  141.5313  169.5371 C.3     1  UNL1        0.0992
     20 C         140.3786  145.6005  161.1731 C.2     1  UNL1        0.2457
     21 N         139.1943  146.5161  161.2684 N.am    1  UNL1       -0.3252
     22 O         141.2830  145.6662  159.9782 O.2     1  UNL1       -0.2703
     23 H         138.6007  146.4730  162.0526 H       1  UNL1        0.1453
     24 H         139.0106  147.1601  160.5467 H       1  UNL1        0.1453
     25 O         138.4710  143.3438  161.6911 O.3     1  UNL1       -0.4790
     26 C         138.4437  142.3520  160.5662 C.3     1  UNL1        0.1661
     27 C         138.8136  142.7824  159.1777 C.3     1  UNL1        0.0472
     28 C         138.0466  140.9297  160.8298 C.3     1  UNL1        0.0472
@<TRIPOS>BOND
     1    13    14    1
     2    14    15    2
     3    15    16    1
     4    16    17    2
     5    17    18    1
     6    17    19    1
     7    19     7    1
     8     7     8   ar
     9     8     9   ar
    10     9    10   ar
    11    10    11   ar
    12    11     1    1
    13     1     2   ar
    14     2     3   ar
    15     3     4   ar
    16     4    20    1
    17    20    21   am
    18    20    22    2
    19     4     5   ar
    20     5    25    1
    21    25    26    1
    22    26    27    1
    23    26    28    1
    24     5     6   ar
    25    11    12   ar
    26    19    14    1
    27    12     7   ar
    28     6     1   ar
    29    21    23    1
    30    21    24    1
@<TRIPOS>MOLECULE
*****
 28 30 0 0 0
SMALL
GASTEIGER

@<TRIPOS>ATOM
      1 C         141.3584  142.6075  164.4980 C.ar    1  UNL1        0.0045
      2 C         142.3282  143.7120  164.1986 C.ar    1  UNL1        0.0004
      3 C         142.0429  144.6804  163.0893 C.ar    1  UNL1        0.0076
      4 C         140.7878  144.5444  162.2793 C.ar    1  UNL1        0.0870
      5 C         139.8180  143.4400  162.5786 C.ar    1  UNL1        0.1427
      6 C         140.1033  142.4715  163.6880 C.ar    1  UNL1        0.0371
      7 C         141.7408  141.0893  168.1447 C.ar    1  UNL1        0.0074
      8 C         142.2144  139.7021  167.8261 C.ar    1  UNL1        0.0953
      9 N         142.4027  139.2835  166.3981 N.ar    1  UNL1       -0.2426
     10 C         142.1173  140.2519  165.2887 C.ar    1  UNL1        0.0988
     11 C         141.6437  141.6391  165.6074 C.ar    1  UNL1        0.0190
     12 C         141.4555  142.0577  167.0354 C.ar    1  UNL1       -0.0005
     13 C         143.9534  142.5992  170.0087 C.3     1  UNL1        0.0499
     14 C         142.5695  142.2020  170.4295 C.2     1  UNL1        0.0677
     15 N         141.9596  142.4291  171.7810 N.2     1  UNL1       -0.1566
     16 N         140.5657  141.8755  171.7595 N.2     1  UNL1       -0.1566
     17 C         140.3141  141.3062  170.3948 C.2     1  UNL1        0.0677
     18 C         139.0466  140.6503  169.9331 C.3     1  UNL1        0.0499
     19 C         141.5525  141.5080  169.5728 C.3     1  UNL1        0.0992
     20 C         140.5025  145.5129  161.1699 C.2     1  UNL1        0.2457
     21 N         141.4113  145.5774  159.9784 N.am    1  UNL1       -0.3252
     22 O         139.3084  146.4168  161.2521 O.2     1  UNL1       -0.2703
     23 H         142.1951  144.9840  159.9244 H       1  UNL1        0.1453
     24 H         141.2241  146.2130  159.2502 H       1  UNL1        0.1453
     25 O         138.5628  143.3039  161.7686 O.3     1  UNL1       -0.4790
     26 C         138.4991  142.3122  160.6451 C.3     1  UNL1        0.1661
     27 C         138.8390  142.7389  159.2477 C.3     1  UNL1        0.0472
     28 C         138.0954  140.8937  160.9188 C.3     1  UNL1        0.0472
@<TRIPOS>BOND
     1    13    14    1
     2    14    15    2
     3    15    16    1
     4    16    17    2
     5    17    18    1
     6    17    19    1
     7    19     7    1
     8     7     8   ar
     9     8     9   ar
    10     9    10   ar
    11    10    11   ar
    12    11     1    1
    13     1     2   ar
    14     2     3   ar
    15     3     4   ar
    16     4    20    1
    17    20    21   am
    18    20    22    2
    19     4     5   ar
    20     5    25    1
    21    25    26    1
    22    26    27    1
    23    26    28    1
    24     5     6   ar
    25    11    12   ar
    26    19    14    1
    27    12     7   ar
    28     6     1   ar
    29    21    23    1
    30    21    24    1
@<TRIPOS>MOLECULE
*****
 28 30 0 0 0
SMALL
GASTEIGER

@<TRIPOS>ATOM
      1 C         139.5330  142.4565  164.0138 C.ar    1  UNL1        0.0045
      2 C         138.3667  143.2342  163.4799 C.ar    1  UNL1        0.0004
      3 C         138.5882  144.3162  162.4649 C.ar    1  UNL1        0.0076
      4 C         139.9759  144.6204  161.9837 C.ar    1  UNL1        0.0870
      5 C         141.1422  143.8428  162.5175 C.ar    1  UNL1        0.1427
      6 C         140.9207  142.7608  163.5326 C.ar    1  UNL1        0.0371
      7 C         140.0175  140.1622  167.2155 C.ar    1  UNL1        0.0074
      8 C         138.8686  139.2107  167.0589 C.ar    1  UNL1        0.0953
      9 N         137.9411  139.3411  165.8873 N.ar    1  UNL1       -0.2426
     10 C         138.1626  140.4230  164.8722 C.ar    1  UNL1        0.0988
     11 C         139.3115  141.3746  165.0288 C.ar    1  UNL1        0.0190
     12 C         140.2390  141.2441  166.2005 C.ar    1  UNL1       -0.0005
     13 C         139.3514  141.0168  170.2938 C.3     1  UNL1        0.0499
     14 C         140.6388  140.4246  169.8021 C.2     1  UNL1        0.0677
     15 N         141.8461  140.1212  170.6390 N.2     1  UNL1       -0.1566
     16 N         142.8985  139.5409  169.7413 N.2     1  UNL1       -0.1566
     17 C         142.3416  139.4856  168.3496 C.2     1  UNL1        0.0677
     18 C         143.0558  138.9740  167.1339 C.3     1  UNL1        0.0499
     19 C         140.9450  140.0318  168.3872 C.3     1  UNL1        0.0992
     20 C         140.1974  145.7024  160.9687 C.2     1  UNL1        0.2457
     21 N         141.3100  145.5779  159.9704 N.am    1  UNL1       -0.3252
     22 O         139.3062  146.9088  160.9518 O.2     1  UNL1       -0.2703
     23 H         141.8949  144.7861  159.9814 H       1  UNL1        0.1453
     24 H         141.4553  146.2881  159.3042 H       1  UNL1        0.1453
     25 O         142.5300  144.1471  162.0363 O.3     1  UNL1       -0.4790
     26 C         143.6853  144.0845  162.9909 C.3     1  UNL1        0.1661
     27 C         144.7091  142.9961  162.8590 C.3     1  UNL1        0.0472
     28 C         143.8169  145.1103  164.0774 C.3     1  UNL1        0.0472
@<TRIPOS>BOND
     1    13    14    1
     2    14    15    2
     3    15    16    1
     4    16    17    2
     5    17    18    1
     6    17    19    1
     7    19     7    1
     8     7     8   ar
     9     8     9   ar
    10     9    10   ar
    11    10    11   ar
    12    11     1    1
    13     1     2   ar
    14     2     3   ar
    15     3     4   ar
    16     4    20    1
    17    20    21   am
    18    20    22    2
    19     4     5   ar
    20     5    25    1
    21    25    26    1
    22    26    27    1
    23    26    28    1
    24     5     6   ar
    25    11    12   ar
    26    19    14    1
    27    12     7   ar
    28     6     1   ar
    29    21    23    1
    30    21    24    1
@<TRIPOS>MOLECULE
*****
 28 30 0 0 0
SMALL
GASTEIGER

@<TRIPOS>ATOM
      1 C         138.6464  139.5465  165.5849 C.ar    1  UNL1        0.0045
      2 C         139.1160  138.2718  164.9488 C.ar    1  UNL1        0.0004
      3 C         138.9437  138.0619  163.4736 C.ar    1  UNL1        0.0076
      4 C         138.3017  139.1266  162.6345 C.ar    1  UNL1        0.0870
      5 C         137.8321  140.4013  163.2705 C.ar    1  UNL1        0.1427
      6 C         138.0044  140.6112  164.7457 C.ar    1  UNL1        0.0371
      7 C         140.1641  140.7469  169.0498 C.ar    1  UNL1        0.0074
      8 C         139.1634  140.1763  170.0105 C.ar    1  UNL1        0.0953
      9 N         137.9904  139.3958  169.4960 N.ar    1  UNL1       -0.2426
     10 C         137.8180  139.1859  168.0208 C.ar    1  UNL1        0.0988
     11 C         138.8187  139.7564  167.0601 C.ar    1  UNL1        0.0190
     12 C         139.9918  140.5369  167.5746 C.ar    1  UNL1       -0.0005
     13 C         140.2324  143.9610  169.6109 C.3     1  UNL1        0.0499
     14 C         141.3686  143.0047  169.8221 C.2     1  UNL1        0.0677
     15 N         142.7356  143.3580  170.3284 N.2     1  UNL1       -0.1566
     16 N         143.5492  142.0989  170.3834 N.2     1  UNL1       -0.1566
     17 C         142.6849  140.9676  169.9111 C.2     1  UNL1        0.0677
     18 C         143.0962  139.5290  169.8045 C.3     1  UNL1        0.0499
     19 C         141.3372  141.5274  169.5642 C.3     1  UNL1        0.0992
     20 C         138.1294  138.9167  161.1593 C.2     1  UNL1        0.2457
     21 N         136.8964  139.4200  160.4691 N.am    1  UNL1       -0.3252
     22 O         139.1900  138.2034  160.3743 O.2     1  UNL1       -0.2703
     23 H         136.2002  139.8882  160.9843 H       1  UNL1        0.1453
     24 H         136.7833  139.2822  159.5008 H       1  UNL1        0.1453
     25 O         137.1900  141.4661  162.4314 O.3     1  UNL1       -0.4790
     26 C         137.9352  142.7316  162.1264 C.3     1  UNL1        0.1661
     27 C         137.7594  143.9356  163.0038 C.3     1  UNL1        0.0472
     28 C         138.8563  142.7933  160.9442 C.3     1  UNL1        0.0472
@<TRIPOS>BOND
     1    13    14    1
     2    14    15    2
     3    15    16    1
     4    16    17    2
     5    17    18    1
     6    17    19    1
     7    19     7    1
     8     7     8   ar
     9     8     9   ar
    10     9    10   ar
    11    10    11   ar
    12    11     1    1
    13     1     2   ar
    14     2     3   ar
    15     3     4   ar
    16     4    20    1
    17    20    21   am
    18    20    22    2
    19     4     5   ar
    20     5    25    1
    21    25    26    1
    22    26    27    1
    23    26    28    1
    24     5     6   ar
    25    11    12   ar
    26    19    14    1
    27    12     7   ar
    28     6     1   ar
    29    21    23    1
    30    21    24    1
@<TRIPOS>MOLECULE
*****
 28 30 0 0 0
SMALL
GASTEIGER

@<TRIPOS>ATOM
      1 C         141.1000  142.6518  164.5288 C.ar    1  UNL1        0.0045
      2 C         139.7469  143.2990  164.5284 C.ar    1  UNL1        0.0004
      3 C         139.3778  144.2650  163.4417 C.ar    1  UNL1        0.0076
      4 C         140.3620  144.5837  162.3555 C.ar    1  UNL1        0.0870
      5 C         141.7151  143.9365  162.3560 C.ar    1  UNL1        0.1427
      6 C         142.0841  142.9705  163.4426 C.ar    1  UNL1        0.0371
      7 C         141.6749  141.1115  168.1408 C.ar    1  UNL1        0.0074
      8 C         142.2071  139.7540  167.7887 C.ar    1  UNL1        0.0953
      9 N         142.3702  139.3625  166.3500 N.ar    1  UNL1       -0.2426
     10 C         142.0012  140.3284  165.2633 C.ar    1  UNL1        0.0988
     11 C         141.4690  141.6859  165.6154 C.ar    1  UNL1        0.0190
     12 C         141.3059  142.0774  167.0542 C.ar    1  UNL1       -0.0005
     13 C         143.9147  142.5997  169.9897 C.3     1  UNL1        0.0499
     14 C         142.5413  142.1871  170.4294 C.2     1  UNL1        0.0677
     15 N         141.9562  142.3862  171.7962 N.2     1  UNL1       -0.1566
     16 N         140.5650  141.8251  171.7911 N.2     1  UNL1       -0.1566
     17 C         140.2904  141.2794  170.4212 C.2     1  UNL1        0.0677
     18 C         139.0178  140.6248  169.9718 C.3     1  UNL1        0.0499
     19 C         141.5118  141.5031  169.5796 C.3     1  UNL1        0.0992
     20 C         139.9929  145.5496  161.2689 C.2     1  UNL1        0.2457
     21 N         139.9755  145.0985  159.8385 N.am    1  UNL1       -0.3252
     22 O         139.6413  146.9667  161.6126 O.2     1  UNL1       -0.2703
     23 H         140.2063  144.1684  159.6128 H       1  UNL1        0.1453
     24 H         139.7333  145.7325  159.1253 H       1  UNL1        0.1453
     25 O         142.6993  144.2552  161.2697 O.3     1  UNL1       -0.4790
     26 C         143.3039  143.1487  160.4572 C.3     1  UNL1        0.1661
     27 C         144.6578  142.6100  160.8136 C.3     1  UNL1        0.0472
     28 C         142.5548  142.5810  159.2883 C.3     1  UNL1        0.0472
@<TRIPOS>BOND
     1    13    14    1
     2    14    15    2
     3    15    16    1
     4    16    17    2
     5    17    18    1
     6    17    19    1
     7    19     7    1
     8     7     8   ar
     9     8     9   ar
    10     9    10   ar
    11    10    11   ar
    12    11     1    1
    13     1     2   ar
    14     2     3   ar
    15     3     4   ar
    16     4    20    1
    17    20    21   am
    18    20    22    2
    19     4     5   ar
    20     5    25    1
    21    25    26    1
    22    26    27    1
    23    26    28    1
    24     5     6   ar
    25    11    12   ar
    26    19    14    1
    27    12     7   ar
    28     6     1   ar
    29    21    23    1
    30    21    24    1
@<TRIPOS>MOLECULE
*****
 28 30 0 0 0
SMALL
GASTEIGER

@<TRIPOS>ATOM
      1 C         142.3294  141.6451  164.3741 C.ar    1  UNL1        0.0045
      2 C         143.2386  141.3908  163.2085 C.ar    1  UNL1        0.0004
      3 C         143.0887  142.1948  161.9510 C.ar    1  UNL1        0.0076
      4 C         142.0297  143.2531  161.8592 C.ar    1  UNL1        0.0870
      5 C         141.1205  143.5074  163.0249 C.ar    1  UNL1        0.1427
      6 C         141.2704  142.7034  164.2823 C.ar    1  UNL1        0.0371
      7 C         142.2402  140.6316  168.2101 C.ar    1  UNL1        0.0074
      8 C         142.7791  139.2332  168.1464 C.ar    1  UNL1        0.0953
      9 N         143.1682  138.6389  166.8254 N.ar    1  UNL1       -0.2426
     10 C         143.0183  139.4428  165.5679 C.ar    1  UNL1        0.0988
     11 C         142.4793  140.8412  165.6315 C.ar    1  UNL1        0.0190
     12 C         142.0903  141.4356  166.9526 C.ar    1  UNL1       -0.0005
     13 C         139.3744  140.2387  169.7209 C.3     1  UNL1        0.0499
     14 C         140.5339  141.0454  170.2256 C.2     1  UNL1        0.0677
     15 N         140.5796  141.8132  171.5134 N.2     1  UNL1       -0.1566
     16 N         141.9252  142.4684  171.6149 N.2     1  UNL1       -0.1566
     17 C         142.7110  142.1055  170.3898 C.2     1  UNL1        0.0677
     18 C         144.1109  142.5449  170.0781 C.3     1  UNL1        0.0499
     19 C         141.8511  141.2260  169.5312 C.3     1  UNL1        0.0992
     20 C         141.8798  144.0570  160.6018 C.2     1  UNL1        0.2457
     21 N         141.5969  145.5279  160.6813 N.am    1  UNL1       -0.3252
     22 O         142.0127  143.3901  159.2648 O.2     1  UNL1       -0.2703
     23 H         141.5096  145.9657  161.5587 H       1  UNL1        0.1453
     24 H         141.4985  146.0556  159.8560 H       1  UNL1        0.1453
     25 O         140.0614  144.5657  162.9331 O.3     1  UNL1       -0.4790
     26 C         138.8030  144.4393  163.7394 C.3     1  UNL1        0.1661
     27 C         137.5893  143.7937  163.1391 C.3     1  UNL1        0.0472
     28 C         138.7581  144.9583  165.1460 C.3     1  UNL1        0.0472
@<TRIPOS>BOND
     1    13    14    1
     2    14    15    2
     3    15    16    1
     4    16    17    2
     5    17    18    1
     6    17    19    1
     7    19     7    1
     8     7     8   ar
     9     8     9   ar
    10     9    10   ar
    11    10    11   ar
    12    11     1    1
    13     1     2   ar
    14     2     3   ar
    15     3     4   ar
    16     4    20    1
    17    20    21   am
    18    20    22    2
    19     4     5   ar
    20     5    25    1
    21    25    26    1
    22    26    27    1
    23    26    28    1
    24     5     6   ar
    25    11    12   ar
    26    19    14    1
    27    12     7   ar
    28     6     1   ar
    29    21    23    1
    30    21    24    1
@<TRIPOS>MOLECULE
*****
 28 30 0 0 0
SMALL
GASTEIGER

@<TRIPOS>ATOM
      1 C         142.0374  139.9880  165.9041 C.ar    1  UNL1        0.0045
      2 C         142.9813  138.8453  166.1351 C.ar    1  UNL1        0.0004
      3 C         143.3416  138.4413  167.5340 C.ar    1  UNL1        0.0076
      4 C         142.7582  139.1799  168.7019 C.ar    1  UNL1        0.0870
      5 C         141.8144  140.3226  168.4708 C.ar    1  UNL1        0.1427
      6 C         141.4540  140.7266  167.0719 C.ar    1  UNL1        0.0371
      7 C         140.8479  142.1931  162.8263 C.ar    1  UNL1        0.0074
      8 C         140.9563  141.2000  161.7074 C.ar    1  UNL1        0.0953
      9 N         141.4251  139.8030  161.9874 N.ar    1  UNL1       -0.2426
     10 C         141.7855  139.3990  163.3863 C.ar    1  UNL1        0.0988
     11 C         141.6771  140.3920  164.5052 C.ar    1  UNL1        0.0190
     12 C         141.2083  141.7890  164.2252 C.ar    1  UNL1       -0.0005
     13 C         142.7272  144.8581  162.7008 C.3     1  UNL1        0.0499
     14 C         141.2429  144.8151  162.4887 C.2     1  UNL1        0.0677
     15 N         140.3619  145.9896  162.1817 N.2     1  UNL1       -0.1566
     16 N         138.9534  145.4906  162.0497 N.2     1  UNL1       -0.1566
     17 C         138.9641  144.0077  162.2751 C.2     1  UNL1        0.0677
     18 C         137.7696  143.1013  162.2360 C.3     1  UNL1        0.0499
     19 C         140.3791  143.5902  162.5464 C.3     1  UNL1        0.0992
     20 C         143.1185  138.7759  170.1008 C.2     1  UNL1        0.2457
     21 N         143.3151  139.8229  171.1567 N.am    1  UNL1       -0.3252
     22 O         143.2824  137.3249  170.4437 O.2     1  UNL1       -0.2703
     23 H         143.2076  140.7753  170.9317 H       1  UNL1        0.1453
     24 H         143.5516  139.5577  172.0749 H       1  UNL1        0.1453
     25 O         141.2308  141.0613  169.6387 O.3     1  UNL1       -0.4790
     26 C         141.4312  142.5425  169.7653 C.3     1  UNL1        0.1661
     27 C         142.7207  143.0810  170.3106 C.3     1  UNL1        0.0472
     28 C         140.3422  143.4851  169.3465 C.3     1  UNL1        0.0472
@<TRIPOS>BOND
     1    13    14    1
     2    14    15    2
     3    15    16    1
     4    16    17    2
     5    17    18    1
     6    17    19    1
     7    19     7    1
     8     7     8   ar
     9     8     9   ar
    10     9    10   ar
    11    10    11   ar
    12    11     1    1
    13     1     2   ar
    14     2     3   ar
    15     3     4   ar
    16     4    20    1
    17    20    21   am
    18    20    22    2
    19     4     5   ar
    20     5    25    1
    21    25    26    1
    22    26    27    1
    23    26    28    1
    24     5     6   ar
    25    11    12   ar
    26    19    14    1
    27    12     7   ar
    28     6     1   ar
    29    21    23    1
    30    21    24    1
@<TRIPOS>MOLECULE
*****
 28 30 0 0 0
SMALL
GASTEIGER

@<TRIPOS>ATOM
      1 C         140.5800  139.3476  164.5748 C.ar    1  UNL1        0.0045
      2 C         140.6723  138.1592  163.6644 C.ar    1  UNL1        0.0004
      3 C         139.9126  138.1443  162.3711 C.ar    1  UNL1        0.0076
      4 C         139.0605  139.3178  161.9883 C.ar    1  UNL1        0.0870
      5 C         138.9682  140.5063  162.8987 C.ar    1  UNL1        0.1427
      6 C         139.7279  140.5212  164.1920 C.ar    1  UNL1        0.0371
      7 C         141.6411  140.2522  168.2904 C.ar    1  UNL1        0.0074
      8 C         142.8592  139.3923  168.4547 C.ar    1  UNL1        0.0953
      9 N         143.3175  138.5176  167.3257 N.ar    1  UNL1       -0.2426
     10 C         142.5577  138.5027  166.0324 C.ar    1  UNL1        0.0988
     11 C         141.3397  139.3625  165.8681 C.ar    1  UNL1        0.0190
     12 C         140.8814  140.2373  166.9971 C.ar    1  UNL1       -0.0005
     13 C         143.3978  142.5879  169.7425 C.3     1  UNL1        0.0499
     14 C         141.9903  142.2006  170.0869 C.2     1  UNL1        0.0677
     15 N         141.1430  142.8188  171.1592 N.2     1  UNL1       -0.1566
     16 N         139.8118  142.1274  171.1546 N.2     1  UNL1       -0.1566
     17 C         139.8365  141.0818  170.0794 C.2     1  UNL1        0.0677
     18 C         138.7121  140.1538  169.7260 C.3     1  UNL1        0.0499
     19 C         141.1828  141.1270  169.4195 C.3     1  UNL1        0.0992
     20 C         138.3008  139.3030  160.6950 C.2     1  UNL1        0.2457
     21 N         136.8233  139.5619  160.6900 N.am    1  UNL1       -0.3252
     22 O         139.0185  139.0291  159.4067 O.2     1  UNL1       -0.2703
     23 H         136.3523  139.7417  161.5356 H       1  UNL1        0.1453
     24 H         136.3247  139.5522  159.8412 H       1  UNL1        0.1453
     25 O         138.1161  141.6800  162.5159 O.3     1  UNL1       -0.4790
     26 C         138.5134  143.0641  162.9359 C.3     1  UNL1        0.1661
     27 C         137.8427  143.7131  164.1103 C.3     1  UNL1        0.0472
     28 C         139.5815  143.7992  162.1817 C.3     1  UNL1        0.0472
@<TRIPOS>BOND
     1    13    14    1
     2    14    15    2
     3    15    16    1
     4    16    17    2
     5    17    18    1
     6    17    19    1
     7    19     7    1
     8     7     8   ar
     9     8     9   ar
    10     9    10   ar
    11    10    11   ar
    12    11     1    1
    13     1     2   ar
    14     2     3   ar
    15     3     4   ar
    16     4    20    1
    17    20    21   am
    18    20    22    2
    19     4     5   ar
    20     5    25    1
    21    25    26    1
    22    26    27    1
    23    26    28    1
    24     5     6   ar
    25    11    12   ar
    26    19    14    1
    27    12     7   ar
    28     6     1   ar
    29    21    23    1
    30    21    24    1
