@<TRIPOS>MOLECULE
*****
 33 37 0 0 0
SMALL
GASTEIGER

@<TRIPOS>ATOM
      1 N         140.2617  138.1991  162.1530 N.3     1  UNL1       -0.2695
      2 C         140.0912  137.9555  163.6233 C.3     1  UNL1        0.0939
      3 C         141.2462  138.1654  164.5571 C.3     1  UNL1        0.1107
      4 N         142.5715  138.6189  164.0207 N.am    1  UNL1       -0.2764
      5 C         143.7264  138.8288  164.9546 C.2     1  UNL1        0.2301
      6 O         145.0517  139.2823  164.4183 O.2     1  UNL1       -0.2745
      7 C         142.7420  138.8626  162.5505 C.3     1  UNL1        0.1107
      8 C         141.5871  138.6527  161.6166 C.3     1  UNL1        0.0939
      9 C         139.1068  137.9893  161.2191 C.3     1  UNL1        0.0769
     10 C         137.9635  138.9602  161.2101 C.3     1  UNL1        0.0436
     11 C         139.7678  143.6470  159.8761 C.3     1  UNL1        0.0312
     12 C         139.1046  142.7466  160.8760 C.ar    1  UNL1       -0.0161
     13 C         138.8656  141.3036  160.5432 C.ar    1  UNL1       -0.0083
     14 C         138.2025  140.4033  161.5429 C.ar    1  UNL1       -0.0213
     15 C         137.7783  140.9458  162.8754 C.ar    1  UNL1       -0.0047
     16 C         138.0172  142.3887  163.2082 C.ar    1  UNL1        0.0269
     17 C         138.6804  143.2892  162.2085 C.ar    1  UNL1        0.0712
     18 C         138.7836  144.6576  162.8140 C.2     1  UNL1        0.3410
     19 O         139.3813  145.8682  162.1603 O.2     1  UNL1       -0.2449
     20 O         138.1842  144.6030  164.1879 O.3     1  UNL1       -0.4404
     21 C         137.7106  143.2007  164.4316 C.3     1  UNL1        0.2356
     22 C         143.5559  138.5852  166.4248 C.3     1  UNL1        0.1116
     23 C         142.7895  139.5646  167.2634 C.ar    1  UNL1       -0.0130
     24 C         142.5609  140.9610  166.7652 C.ar    1  UNL1       -0.0022
     25 C         141.7944  141.9404  167.6039 C.ar    1  UNL1        0.0190
     26 C         141.2565  141.5234  168.9406 C.ar    1  UNL1        0.0862
     27 C         141.4851  140.1272  169.4387 C.ar    1  UNL1        0.0190
     28 C         142.2515  139.1478  168.6002 C.ar    1  UNL1       -0.0022
     29 N         140.4900  142.5029  169.7793 N.ar    1  UNL1       -0.1886
     30 C         140.5747  143.9977  169.6881 C.ar    1  UNL1        0.2258
     31 N         139.6412  144.5780  170.7088 N.ar    1  UNL1       -0.1045
     32 N         138.9796  143.4418  171.4309 N.ar    1  UNL1       -0.0222
     33 N         139.5042  142.1593  170.8564 N.ar    1  UNL1       -0.0385
@<TRIPOS>BOND
     1    11    12    1
     2    12    13   ar
     3    13    14   ar
     4    14    10    1
     5    10     9    1
     6     9     1    1
     7     1     2    1
     8     2     3    1
     9     3     4    1
    10     4     5   am
    11     5     6    2
    12     5    22    1
    13    22    23    1
    14    23    24   ar
    15    24    25   ar
    16    25    26   ar
    17    26    29    1
    18    29    30   ar
    19    30    31   ar
    20    31    32   ar
    21    32    33   ar
    22    26    27   ar
    23    27    28   ar
    24     4     7    1
    25     7     8    1
    26    14    15   ar
    27    15    16   ar
    28    16    17   ar
    29    17    18    1
    30    18    19    2
    31    18    20    1
    32    20    21    1
    33    17    12   ar
    34     8     1    1
    35    21    16    1
    36    28    23   ar
    37    33    29   ar
@<TRIPOS>MOLECULE
*****
 33 37 0 0 0
SMALL
GASTEIGER

@<TRIPOS>ATOM
      1 N         138.7045  140.5369  160.0181 N.3     1  UNL1       -0.2695
      2 C         137.8326  140.5060  161.2384 C.3     1  UNL1        0.0939
      3 C         138.1570  139.5744  162.3684 C.3     1  UNL1        0.1107
      4 N         139.3529  138.6737  162.2782 N.am    1  UNL1       -0.2764
      5 C         139.6772  137.7420  163.4082 C.2     1  UNL1        0.2301
      6 O         140.8732  136.8413  163.3180 O.2     1  UNL1       -0.2745
      7 C         140.2247  138.7045  161.0579 C.3     1  UNL1        0.1107
      8 C         139.9005  139.6361  159.9279 C.3     1  UNL1        0.0939
      9 C         138.3802  141.4685  158.8881 C.3     1  UNL1        0.0769
     10 C         138.9416  142.8594  158.8782 C.3     1  UNL1        0.0436
     11 C         140.3074  145.1002  163.3631 C.3     1  UNL1        0.0312
     12 C         140.6839  144.3680  162.1092 C.ar    1  UNL1       -0.0161
     13 C         139.6245  143.9798  161.1206 C.ar    1  UNL1       -0.0083
     14 C         140.0009  143.2477  159.8668 C.ar    1  UNL1       -0.0213
     15 C         141.4366  142.9037  159.6014 C.ar    1  UNL1       -0.0047
     16 C         142.4959  143.2919  160.5899 C.ar    1  UNL1        0.0269
     17 C         142.1195  144.0241  161.8438 C.ar    1  UNL1        0.0712
     18 C         143.3732  144.2746  162.6283 C.2     1  UNL1        0.3410
     19 O         143.4604  144.9788  163.9499 O.2     1  UNL1       -0.2449
     20 O         144.5244  143.6973  161.8593 O.3     1  UNL1       -0.4404
     21 C         143.9822  143.0900  160.5994 C.3     1  UNL1        0.2356
     22 C         138.8054  137.7112  164.6284 C.3     1  UNL1        0.1116
     23 C         139.1251  138.5903  165.8010 C.ar    1  UNL1       -0.0130
     24 C         140.4239  139.3397  165.8445 C.ar    1  UNL1       -0.0022
     25 C         140.7436  140.2188  167.0172 C.ar    1  UNL1        0.0190
     26 C         139.7646  140.3486  168.1461 C.ar    1  UNL1        0.0862
     27 C         138.4659  139.5993  168.1026 C.ar    1  UNL1        0.0190
     28 C         138.1462  138.7202  166.9300 C.ar    1  UNL1       -0.0022
     29 N         140.0843  141.2277  169.3187 N.ar    1  UNL1       -0.1886
     30 C         140.5243  142.6602  169.2528 C.ar    1  UNL1        0.2258
     31 N         140.7320  143.1465  170.6565 N.ar    1  UNL1       -0.1045
     32 N         140.4203  142.0145  171.5900 N.ar    1  UNL1       -0.0222
     33 N         140.0200  140.8287  170.7633 N.ar    1  UNL1       -0.0385
@<TRIPOS>BOND
     1    11    12    1
     2    12    13   ar
     3    13    14   ar
     4    14    10    1
     5    10     9    1
     6     9     1    1
     7     1     2    1
     8     2     3    1
     9     3     4    1
    10     4     5   am
    11     5     6    2
    12     5    22    1
    13    22    23    1
    14    23    24   ar
    15    24    25   ar
    16    25    26   ar
    17    26    29    1
    18    29    30   ar
    19    30    31   ar
    20    31    32   ar
    21    32    33   ar
    22    26    27   ar
    23    27    28   ar
    24     4     7    1
    25     7     8    1
    26    14    15   ar
    27    15    16   ar
    28    16    17   ar
    29    17    18    1
    30    18    19    2
    31    18    20    1
    32    20    21    1
    33    17    12   ar
    34     8     1    1
    35    21    16    1
    36    28    23   ar
    37    33    29   ar
@<TRIPOS>MOLECULE
*****
 33 37 0 0 0
SMALL
GASTEIGER

@<TRIPOS>ATOM
      1 N         138.5864  140.3270  159.8363 N.3     1  UNL1       -0.2695
      2 C         137.6951  140.2646  161.0413 C.3     1  UNL1        0.0939
      3 C         138.0606  139.3843  162.1995 C.3     1  UNL1        0.1107
      4 N         139.3171  138.5665  162.1528 N.am    1  UNL1       -0.2764
      5 C         139.6825  137.6861  163.3111 C.2     1  UNL1        0.2301
      6 O         140.9390  136.8683  163.2644 O.2     1  UNL1       -0.2745
      7 C         140.2083  138.6289  160.9479 C.3     1  UNL1        0.1107
      8 C         139.8429  139.5092  159.7896 C.3     1  UNL1        0.0939
      9 C         138.2210  141.2073  158.6780 C.3     1  UNL1        0.0769
     10 C         138.7131  142.6234  158.6277 C.3     1  UNL1        0.0436
     11 C         143.7938  142.9737  159.6599 C.3     1  UNL1        0.0312
     12 C         142.3685  143.2374  160.0461 C.ar    1  UNL1       -0.0161
     13 C         141.2534  142.7986  159.1438 C.ar    1  UNL1       -0.0083
     14 C         139.8283  143.0623  159.5300 C.ar    1  UNL1       -0.0213
     15 C         139.5180  143.7649  160.8185 C.ar    1  UNL1       -0.0047
     16 C         140.6330  144.2037  161.7207 C.ar    1  UNL1        0.0269
     17 C         142.0583  143.9400  161.3346 C.ar    1  UNL1        0.0712
     18 C         142.9406  144.4853  162.4181 C.2     1  UNL1        0.3410
     19 O         144.4397  144.4382  162.4417 O.2     1  UNL1       -0.2449
     20 O         142.0607  145.0860  163.4740 O.3     1  UNL1       -0.4404
     21 C         140.6345  144.9120  163.0430 C.3     1  UNL1        0.2356
     22 C         138.7913  137.6237  164.5160 C.3     1  UNL1        0.1116
     23 C         139.1006  138.4607  165.7217 C.ar    1  UNL1       -0.0130
     24 C         138.0585  138.6632  166.7816 C.ar    1  UNL1       -0.0022
     25 C         138.3678  139.5002  167.9873 C.ar    1  UNL1        0.0190
     26 C         139.7191  140.1347  168.1332 C.ar    1  UNL1        0.0862
     27 C         140.7612  139.9322  167.0734 C.ar    1  UNL1        0.0190
     28 C         140.4519  139.0952  165.8677 C.ar    1  UNL1       -0.0022
     29 N         140.0284  140.9717  169.3390 N.ar    1  UNL1       -0.1886
     30 C         140.3327  142.4405  169.3382 C.ar    1  UNL1        0.2258
     31 N         140.5801  142.8634  170.7559 N.ar    1  UNL1       -0.1045
     32 N         140.4287  141.6559  171.6329 N.ar    1  UNL1       -0.0222
     33 N         140.0878  140.4868  170.7572 N.ar    1  UNL1       -0.0385
@<TRIPOS>BOND
     1    11    12    1
     2    12    13   ar
     3    13    14   ar
     4    14    10    1
     5    10     9    1
     6     9     1    1
     7     1     2    1
     8     2     3    1
     9     3     4    1
    10     4     5   am
    11     5     6    2
    12     5    22    1
    13    22    23    1
    14    23    24   ar
    15    24    25   ar
    16    25    26   ar
    17    26    29    1
    18    29    30   ar
    19    30    31   ar
    20    31    32   ar
    21    32    33   ar
    22    26    27   ar
    23    27    28   ar
    24     4     7    1
    25     7     8    1
    26    14    15   ar
    27    15    16   ar
    28    16    17   ar
    29    17    18    1
    30    18    19    2
    31    18    20    1
    32    20    21    1
    33    17    12   ar
    34     8     1    1
    35    21    16    1
    36    28    23   ar
    37    33    29   ar
@<TRIPOS>MOLECULE
*****
 33 37 0 0 0
SMALL
GASTEIGER

@<TRIPOS>ATOM
      1 N         141.1519  140.8929  159.9467 N.3     1  UNL1       -0.2695
      2 C         141.2978  139.8595  161.0242 C.3     1  UNL1        0.0939
      3 C         140.2435  139.7260  162.0828 C.3     1  UNL1        0.1107
      4 N         139.0436  140.6257  162.0641 N.am    1  UNL1       -0.2764
      5 C         137.9894  140.4922  163.1229 C.2     1  UNL1        0.2301
      6 O         136.7894  141.3919  163.1042 O.2     1  UNL1       -0.2745
      7 C         138.8977  141.6591  160.9867 C.3     1  UNL1        0.1107
      8 C         139.9518  141.7927  159.9280 C.3     1  UNL1        0.0939
      9 C         142.2060  141.0265  158.8879 C.3     1  UNL1        0.0769
     10 C         143.4579  141.8033  159.1698 C.3     1  UNL1        0.0436
     11 C         145.9097  141.5384  163.7436 C.3     1  UNL1        0.0312
     12 C         144.9330  142.2187  162.8307 C.ar    1  UNL1       -0.0161
     13 C         144.6837  141.6709  161.4567 C.ar    1  UNL1       -0.0083
     14 C         143.7071  142.3511  160.5438 C.ar    1  UNL1       -0.0213
     15 C         142.9797  143.5792  161.0049 C.ar    1  UNL1       -0.0047
     16 C         143.2289  144.1271  162.3788 C.ar    1  UNL1        0.0269
     17 C         144.2056  143.4469  163.2917 C.ar    1  UNL1        0.0712
     18 C         144.2448  144.2118  164.5814 C.2     1  UNL1        0.3410
     19 O         145.0884  143.8817  165.7770 O.2     1  UNL1       -0.2449
     20 O         143.2924  145.3648  164.4656 O.3     1  UNL1       -0.4404
     21 C         142.6646  145.3125  163.1043 C.3     1  UNL1        0.2356
     22 C         138.1353  139.4588  164.2003 C.3     1  UNL1        0.1116
     23 C         138.6517  139.8528  165.5524 C.ar    1  UNL1       -0.0130
     24 C         139.6219  140.9894  165.6827 C.ar    1  UNL1       -0.0022
     25 C         140.1383  141.3833  167.0349 C.ar    1  UNL1        0.0190
     26 C         139.6844  140.6407  168.2565 C.ar    1  UNL1        0.0862
     27 C         138.7142  139.5042  168.1262 C.ar    1  UNL1        0.0190
     28 C         138.1978  139.1102  166.7741 C.ar    1  UNL1       -0.0022
     29 N         140.2008  141.0347  169.6087 N.ar    1  UNL1       -0.1886
     30 C         141.4487  140.5178  170.2609 C.ar    1  UNL1        0.2258
     31 N         141.5790  141.1783  171.6013 N.ar    1  UNL1       -0.1045
     32 N         140.4116  142.1035  171.7775 N.ar    1  UNL1       -0.0222
     33 N         139.5598  142.0148  170.5460 N.ar    1  UNL1       -0.0385
@<TRIPOS>BOND
     1    11    12    1
     2    12    13   ar
     3    13    14   ar
     4    14    10    1
     5    10     9    1
     6     9     1    1
     7     1     2    1
     8     2     3    1
     9     3     4    1
    10     4     5   am
    11     5     6    2
    12     5    22    1
    13    22    23    1
    14    23    24   ar
    15    24    25   ar
    16    25    26   ar
    17    26    29    1
    18    29    30   ar
    19    30    31   ar
    20    31    32   ar
    21    32    33   ar
    22    26    27   ar
    23    27    28   ar
    24     4     7    1
    25     7     8    1
    26    14    15   ar
    27    15    16   ar
    28    16    17   ar
    29    17    18    1
    30    18    19    2
    31    18    20    1
    32    20    21    1
    33    17    12   ar
    34     8     1    1
    35    21    16    1
    36    28    23   ar
    37    33    29   ar
@<TRIPOS>MOLECULE
*****
 33 37 0 0 0
SMALL
GASTEIGER

@<TRIPOS>ATOM
      1 N         142.1219  138.7371  160.2126 N.3     1  UNL1       -0.2695
      2 C         141.7647  138.0215  161.4817 C.3     1  UNL1        0.0939
      3 C         142.5279  138.3035  162.7419 C.3     1  UNL1        0.1107
      4 N         143.6482  139.3008  162.7331 N.am    1  UNL1       -0.2764
      5 C         144.4114  139.5827  163.9933 C.2     1  UNL1        0.2301
      6 O         145.5316  140.5800  163.9846 O.2     1  UNL1       -0.2745
      7 C         144.0054  140.0163  161.4641 C.3     1  UNL1        0.1107
      8 C         143.2423  139.7345  160.2039 C.3     1  UNL1        0.0939
      9 C         141.3588  138.4553  158.9524 C.3     1  UNL1        0.0769
     10 C         140.0032  139.0629  158.7447 C.3     1  UNL1        0.0436
     11 C         139.9419  144.1511  159.7973 C.3     1  UNL1        0.0312
     12 C         139.5232  142.7501  160.1321 C.ar    1  UNL1       -0.0161
     13 C         139.9725  141.6070  159.2710 C.ar    1  UNL1       -0.0083
     14 C         139.5539  140.2061  159.6058 C.ar    1  UNL1       -0.0213
     15 C         138.6858  139.9482  160.8016 C.ar    1  UNL1       -0.0047
     16 C         138.2365  141.0913  161.6627 C.ar    1  UNL1        0.0269
     17 C         138.6552  142.4923  161.3279 C.ar    1  UNL1        0.0712
     18 C         138.0612  143.4113  162.3539 C.2     1  UNL1        0.3410
     19 O         138.2243  144.9016  162.4025 O.2     1  UNL1       -0.2449
     20 O         137.2754  142.5783  163.3227 O.3     1  UNL1       -0.4404
     21 C         137.3837  141.1445  162.8955 C.3     1  UNL1        0.2356
     22 C         144.0541  138.8671  165.2623 C.3     1  UNL1        0.1116
     23 C         143.3263  139.5942  166.3539 C.ar    1  UNL1       -0.0130
     24 C         142.9591  138.8755  167.6184 C.ar    1  UNL1       -0.0022
     25 C         142.2312  139.6027  168.7100 C.ar    1  UNL1        0.0190
     26 C         141.8706  141.0483  168.5371 C.ar    1  UNL1        0.0862
     27 C         142.2377  141.7669  167.2727 C.ar    1  UNL1        0.0190
     28 C         142.9656  141.0399  166.1811 C.ar    1  UNL1       -0.0022
     29 N         141.1427  141.7755  169.6287 N.ar    1  UNL1       -0.1886
     30 C         141.2091  141.4614  171.0939 C.ar    1  UNL1        0.2258
     31 N         140.3281  142.4362  171.8174 N.ar    1  UNL1       -0.1045
     32 N         139.7170  143.3528  170.7993 N.ar    1  UNL1       -0.0222
     33 N         140.2205  142.9445  169.4466 N.ar    1  UNL1       -0.0385
@<TRIPOS>BOND
     1    11    12    1
     2    12    13   ar
     3    13    14   ar
     4    14    10    1
     5    10     9    1
     6     9     1    1
     7     1     2    1
     8     2     3    1
     9     3     4    1
    10     4     5   am
    11     5     6    2
    12     5    22    1
    13    22    23    1
    14    23    24   ar
    15    24    25   ar
    16    25    26   ar
    17    26    29    1
    18    29    30   ar
    19    30    31   ar
    20    31    32   ar
    21    32    33   ar
    22    26    27   ar
    23    27    28   ar
    24     4     7    1
    25     7     8    1
    26    14    15   ar
    27    15    16   ar
    28    16    17   ar
    29    17    18    1
    30    18    19    2
    31    18    20    1
    32    20    21    1
    33    17    12   ar
    34     8     1    1
    35    21    16    1
    36    28    23   ar
    37    33    29   ar
@<TRIPOS>MOLECULE
*****
 33 37 0 0 0
SMALL
GASTEIGER

@<TRIPOS>ATOM
      1 N         140.8988  140.8051  160.0195 N.3     1  UNL1       -0.2695
      2 C         139.7709  141.0455  160.9789 C.3     1  UNL1        0.0939
      3 C         139.4819  140.0482  162.0615 C.3     1  UNL1        0.1107
      4 N         140.3205  138.8108  162.1847 N.am    1  UNL1       -0.2764
      5 C         140.0314  137.8135  163.2674 C.2     1  UNL1        0.2301
      6 O         140.8700  136.5761  163.3906 O.2     1  UNL1       -0.2745
      7 C         141.4483  138.5704  161.2254 C.3     1  UNL1        0.1107
      8 C         141.7374  139.5675  160.1428 C.3     1  UNL1        0.0939
      9 C         141.1879  141.8022  158.9369 C.3     1  UNL1        0.0769
     10 C         142.0060  143.0224  159.2401 C.3     1  UNL1        0.0436
     11 C         142.3538  145.4372  163.8280 C.3     1  UNL1        0.0312
     12 C         142.8321  144.3808  162.8764 C.ar    1  UNL1       -0.0161
     13 C         142.1799  144.2297  161.5340 C.ar    1  UNL1       -0.0083
     14 C         142.6581  143.1735  160.5825 C.ar    1  UNL1       -0.0213
     15 C         143.7885  142.2682  160.9733 C.ar    1  UNL1       -0.0047
     16 C         144.4407  142.4193  162.3156 C.ar    1  UNL1        0.0269
     17 C         143.9625  143.4756  163.2672 C.ar    1  UNL1        0.0712
     18 C         144.7934  143.3879  164.5129 C.2     1  UNL1        0.3410
     19 O         144.6566  144.2580  165.7271 O.2     1  UNL1       -0.2449
     20 O         145.7853  142.2774  164.3312 O.3     1  UNL1       -0.4404
     21 C         145.5673  141.6787  162.9732 C.3     1  UNL1        0.2356
     22 C         138.9036  138.0539  164.2267 C.3     1  UNL1        0.1116
     23 C         139.1714  138.7057  165.5509 C.ar    1  UNL1       -0.0130
     24 C         138.0827  138.7897  166.5794 C.ar    1  UNL1       -0.0022
     25 C         138.3506  139.4415  167.9036 C.ar    1  UNL1        0.0190
     26 C         139.7070  140.0093  168.1992 C.ar    1  UNL1        0.0862
     27 C         140.7957  139.9253  167.1708 C.ar    1  UNL1        0.0190
     28 C         140.5279  139.2736  165.8466 C.ar    1  UNL1       -0.0022
     29 N         139.9749  140.6611  169.5234 N.ar    1  UNL1       -0.1886
     30 C         139.8171  142.1196  169.8363 C.ar    1  UNL1        0.2258
     31 N         140.1923  142.3287  171.2734 N.ar    1  UNL1       -0.1045
     32 N         140.5820  140.9994  171.8488 N.ar    1  UNL1       -0.0222
     33 N         140.4477  139.9688  170.7673 N.ar    1  UNL1       -0.0385
@<TRIPOS>BOND
     1    11    12    1
     2    12    13   ar
     3    13    14   ar
     4    14    10    1
     5    10     9    1
     6     9     1    1
     7     1     2    1
     8     2     3    1
     9     3     4    1
    10     4     5   am
    11     5     6    2
    12     5    22    1
    13    22    23    1
    14    23    24   ar
    15    24    25   ar
    16    25    26   ar
    17    26    29    1
    18    29    30   ar
    19    30    31   ar
    20    31    32   ar
    21    32    33   ar
    22    26    27   ar
    23    27    28   ar
    24     4     7    1
    25     7     8    1
    26    14    15   ar
    27    15    16   ar
    28    16    17   ar
    29    17    18    1
    30    18    19    2
    31    18    20    1
    32    20    21    1
    33    17    12   ar
    34     8     1    1
    35    21    16    1
    36    28    23   ar
    37    33    29   ar
@<TRIPOS>MOLECULE
*****
 33 37 0 0 0
SMALL
GASTEIGER

@<TRIPOS>ATOM
      1 N         141.9559  139.7266  160.0872 N.3     1  UNL1       -0.2695
      2 C         141.5781  138.8817  161.2678 C.3     1  UNL1        0.0939
      3 C         142.3884  138.9493  162.5283 C.3     1  UNL1        0.1107
      4 N         143.5763  139.8616  162.6083 N.am    1  UNL1       -0.2764
      5 C         144.3866  139.9291  163.8689 C.2     1  UNL1        0.2301
      6 O         145.5744  140.8414  163.9490 O.2     1  UNL1       -0.2745
      7 C         143.9541  140.7064  161.4279 C.3     1  UNL1        0.1107
      8 C         143.1439  140.6389  160.1673 C.3     1  UNL1        0.0939
      9 C         141.1457  139.6591  158.8267 C.3     1  UNL1        0.0769
     10 C         139.9580  140.5579  158.6495 C.3     1  UNL1        0.0436
     11 C         137.2647  141.4952  162.9932 C.3     1  UNL1        0.0312
     12 C         138.2069  141.9609  161.9230 C.ar    1  UNL1       -0.0161
     13 C         138.6114  141.0266  160.8213 C.ar    1  UNL1       -0.0083
     14 C         139.5536  141.4922  159.7512 C.ar    1  UNL1       -0.0213
     15 C         140.0914  142.8921  159.7826 C.ar    1  UNL1       -0.0047
     16 C         139.6871  143.8264  160.8842 C.ar    1  UNL1        0.0269
     17 C         138.7448  143.3608  161.9544 C.ar    1  UNL1        0.0712
     18 C         138.5269  144.4985  162.9073 C.2     1  UNL1        0.3410
     19 O         137.6546  144.4721  164.1273 O.2     1  UNL1       -0.2449
     20 O         139.3345  145.6673  162.4260 O.3     1  UNL1       -0.4404
     21 C         140.0515  145.2519  161.1756 C.3     1  UNL1        0.2356
     22 C         144.0088  139.0843  165.0494 C.3     1  UNL1        0.1116
     23 C         143.3220  139.7072  166.2284 C.ar    1  UNL1       -0.0130
     24 C         142.9433  141.1584  166.1953 C.ar    1  UNL1       -0.0022
     25 C         142.2564  141.7813  167.3744 C.ar    1  UNL1        0.0190
     26 C         141.9483  140.9532  168.5865 C.ar    1  UNL1        0.0862
     27 C         142.3270  139.5022  168.6197 C.ar    1  UNL1        0.0190
     28 C         143.0139  138.8792  167.4406 C.ar    1  UNL1       -0.0022
     29 N         141.2615  141.5761  169.7657 N.ar    1  UNL1       -0.1886
     30 C         140.1863  142.6205  169.7094 C.ar    1  UNL1        0.2258
     31 N         139.7896  142.9538  171.1170 N.ar    1  UNL1       -0.1045
     32 N         140.6197  142.1154  172.0433 N.ar    1  UNL1       -0.0222
     33 N         141.5293  141.2640  171.2082 N.ar    1  UNL1       -0.0385
@<TRIPOS>BOND
     1    11    12    1
     2    12    13   ar
     3    13    14   ar
     4    14    10    1
     5    10     9    1
     6     9     1    1
     7     1     2    1
     8     2     3    1
     9     3     4    1
    10     4     5   am
    11     5     6    2
    12     5    22    1
    13    22    23    1
    14    23    24   ar
    15    24    25   ar
    16    25    26   ar
    17    26    29    1
    18    29    30   ar
    19    30    31   ar
    20    31    32   ar
    21    32    33   ar
    22    26    27   ar
    23    27    28   ar
    24     4     7    1
    25     7     8    1
    26    14    15   ar
    27    15    16   ar
    28    16    17   ar
    29    17    18    1
    30    18    19    2
    31    18    20    1
    32    20    21    1
    33    17    12   ar
    34     8     1    1
    35    21    16    1
    36    28    23   ar
    37    33    29   ar
@<TRIPOS>MOLECULE
*****
 33 37 0 0 0
SMALL
GASTEIGER

@<TRIPOS>ATOM
      1 N         142.1195  141.5480  159.5078 N.3     1  UNL1       -0.2695
      2 C         141.8471  140.3743  160.4014 C.3     1  UNL1        0.0939
      3 C         142.7656  140.0769  161.5494 C.3     1  UNL1        0.1107
      4 N         143.9562  140.9529  161.8039 N.am    1  UNL1       -0.2764
      5 C         144.8747  140.6554  162.9519 C.2     1  UNL1        0.2301
      6 O         146.0653  141.5314  163.2064 O.2     1  UNL1       -0.2745
      7 C         144.2286  142.1265  160.9103 C.3     1  UNL1        0.1107
      8 C         143.3102  142.4240  159.7623 C.3     1  UNL1        0.0939
      9 C         141.2011  141.8455  158.3598 C.3     1  UNL1        0.0769
     10 C         139.9085  142.5673  158.6010 C.3     1  UNL1        0.0436
     11 C         140.2228  145.9497  162.5331 C.3     1  UNL1        0.0312
     12 C         139.6861  144.6725  161.9580 C.ar    1  UNL1       -0.0161
     13 C         140.0656  144.2584  160.5670 C.ar    1  UNL1       -0.0083
     14 C         139.5289  142.9813  159.9919 C.ar    1  UNL1       -0.0213
     15 C         138.6127  142.1181  160.8076 C.ar    1  UNL1       -0.0047
     16 C         138.2332  142.5321  162.1985 C.ar    1  UNL1        0.0269
     17 C         138.7699  143.8093  162.7737 C.ar    1  UNL1        0.0712
     18 C         138.2243  143.9573  164.1631 C.2     1  UNL1        0.3410
     19 O         138.5035  145.0918  165.1037 O.2     1  UNL1       -0.2449
     20 O         137.3504  142.7716  164.4466 O.3     1  UNL1       -0.4404
     21 C         137.3559  141.8908  163.2324 C.3     1  UNL1        0.2356
     22 C         144.6024  139.4818  163.8455 C.3     1  UNL1        0.1116
     23 C         143.8970  139.6831  165.1539 C.ar    1  UNL1       -0.0130
     24 C         143.3472  141.0327  165.5097 C.ar    1  UNL1       -0.0022
     25 C         142.6417  141.2339  166.8181 C.ar    1  UNL1        0.0190
     26 C         142.4860  140.0857  167.7706 C.ar    1  UNL1        0.0862
     27 C         143.0358  138.7362  167.4148 C.ar    1  UNL1        0.0190
     28 C         143.7412  138.5349  166.1064 C.ar    1  UNL1       -0.0022
     29 N         141.7806  140.2869  169.0790 N.ar    1  UNL1       -0.1886
     30 C         142.3373  140.9887  170.2821 C.ar    1  UNL1        0.2258
     31 N         141.2953  140.9572  171.3606 N.ar    1  UNL1       -0.1045
     32 N         140.0945  140.2359  170.8240 N.ar    1  UNL1       -0.0222
     33 N         140.3944  139.8217  169.4139 N.ar    1  UNL1       -0.0385
@<TRIPOS>BOND
     1    11    12    1
     2    12    13   ar
     3    13    14   ar
     4    14    10    1
     5    10     9    1
     6     9     1    1
     7     1     2    1
     8     2     3    1
     9     3     4    1
    10     4     5   am
    11     5     6    2
    12     5    22    1
    13    22    23    1
    14    23    24   ar
    15    24    25   ar
    16    25    26   ar
    17    26    29    1
    18    29    30   ar
    19    30    31   ar
    20    31    32   ar
    21    32    33   ar
    22    26    27   ar
    23    27    28   ar
    24     4     7    1
    25     7     8    1
    26    14    15   ar
    27    15    16   ar
    28    16    17   ar
    29    17    18    1
    30    18    19    2
    31    18    20    1
    32    20    21    1
    33    17    12   ar
    34     8     1    1
    35    21    16    1
    36    28    23   ar
    37    33    29   ar
@<TRIPOS>MOLECULE
*****
 33 37 0 0 0
SMALL
GASTEIGER

@<TRIPOS>ATOM
      1 N         143.3712  139.8525  160.6115 N.3     1  UNL1       -0.2695
      2 C         144.0585  140.1955  161.9000 C.3     1  UNL1        0.0939
      3 C         143.6650  139.4983  163.1685 C.3     1  UNL1        0.1107
      4 N         142.5844  138.4582  163.1486 N.am    1  UNL1       -0.2764
      5 C         142.1909  137.7611  164.4172 C.2     1  UNL1        0.2301
      6 O         141.1104  136.7210  164.3973 O.2     1  UNL1       -0.2745
      7 C         141.8972  138.1152  161.8602 C.3     1  UNL1        0.1107
      8 C         142.2906  138.8123  160.5917 C.3     1  UNL1        0.0939
      9 C         143.7646  140.5496  159.3430 C.3     1  UNL1        0.0769
     10 C         143.2359  141.9215  159.0461 C.3     1  UNL1        0.0436
     11 C         142.1199  145.1249  162.9823 C.3     1  UNL1        0.0312
     12 C         141.6716  144.1537  161.9308 C.ar    1  UNL1       -0.0161
     13 C         142.6778  143.5232  161.0142 C.ar    1  UNL1       -0.0083
     14 C         142.2296  142.5520  159.9627 C.ar    1  UNL1       -0.0213
     15 C         140.7751  142.2111  159.8277 C.ar    1  UNL1       -0.0047
     16 C         139.7689  142.8415  160.7442 C.ar    1  UNL1        0.0269
     17 C         140.2171  143.8128  161.7958 C.ar    1  UNL1        0.0712
     18 C         139.0044  144.2719  162.5499 C.2     1  UNL1        0.3410
     19 O         138.9917  145.2473  163.6894 O.2     1  UNL1       -0.2449
     20 O         137.8067  143.5843  161.9644 O.3     1  UNL1       -0.4404
     21 C         138.2792  142.7003  160.8484 C.3     1  UNL1        0.2356
     22 C         142.8781  138.1041  165.7056 C.3     1  UNL1        0.1116
     23 C         142.2827  139.1306  166.6231 C.ar    1  UNL1       -0.0130
     24 C         142.8307  139.3064  168.0084 C.ar    1  UNL1       -0.0022
     25 C         142.2352  140.3330  168.9258 C.ar    1  UNL1        0.0190
     26 C         141.0917  141.1836  168.4580 C.ar    1  UNL1        0.0862
     27 C         140.5437  141.0077  167.0728 C.ar    1  UNL1        0.0190
     28 C         141.1392  139.9813  166.1554 C.ar    1  UNL1       -0.0022
     29 N         140.4962  142.2101  169.3754 N.ar    1  UNL1       -0.1886
     30 C         139.5733  141.9354  170.5255 C.ar    1  UNL1        0.2258
     31 N         139.2258  143.2471  171.1646 N.ar    1  UNL1       -0.1045
     32 N         139.9339  144.3326  170.4096 N.ar    1  UNL1       -0.0222
     33 N         140.7191  143.6918  169.3038 N.ar    1  UNL1       -0.0385
@<TRIPOS>BOND
     1    11    12    1
     2    12    13   ar
     3    13    14   ar
     4    14    10    1
     5    10     9    1
     6     9     1    1
     7     1     2    1
     8     2     3    1
     9     3     4    1
    10     4     5   am
    11     5     6    2
    12     5    22    1
    13    22    23    1
    14    23    24   ar
    15    24    25   ar
    16    25    26   ar
    17    26    29    1
    18    29    30   ar
    19    30    31   ar
    20    31    32   ar
    21    32    33   ar
    22    26    27   ar
    23    27    28   ar
    24     4     7    1
    25     7     8    1
    26    14    15   ar
    27    15    16   ar
    28    16    17   ar
    29    17    18    1
    30    18    19    2
    31    18    20    1
    32    20    21    1
    33    17    12   ar
    34     8     1    1
    35    21    16    1
    36    28    23   ar
    37    33    29   ar
