@<TRIPOS>MOLECULE
*****
 36 38 0 0 0
SMALL
GASTEIGER

@<TRIPOS>ATOM
      1 N         142.8722  139.1930  162.9952 N.am    1  UNL1       -0.2797
      2 C         144.0316  139.7837  162.2490 C.3     1  UNL1        0.0956
      3 C         144.2130  139.0031  160.9810 C.3     1  UNL1        0.0505
      4 C         143.1656  137.9300  160.9435 C.3     1  UNL1        0.1507
      5 C         142.3370  138.0474  162.1883 C.2     1  UNL1        0.2435
      6 O         141.1768  137.1726  162.5609 O.2     1  UNL1       -0.2731
      7 C         141.2793  140.6093  166.9583 C.3     1  UNL1        0.0577
      8 C         142.3270  139.5369  166.9111 C.3     1  UNL1        0.0177
      9 C         142.8579  139.0648  165.5900 C.3     1  UNL1        0.0212
     10 C         142.3412  139.6651  164.3162 C.3     1  UNL1        0.0771
     11 C         141.2936  140.7376  164.3635 C.3     1  UNL1        0.0432
     12 C         140.7626  141.2096  165.6846 C.3     1  UNL1        0.0194
     13 N         140.7483  141.0814  168.2794 N.3     1  UNL1       -0.2741
     14 C         139.6295  140.3381  168.9470 C.3     1  UNL1        0.0896
     15 C         140.4359  143.3768  169.4556 C.3     1  UNL1        0.0173
     16 C         141.3362  142.2969  168.9329 C.3     1  UNL1        0.0576
     17 C         142.8243  142.4324  169.0637 C.3     1  UNL1        0.0173
     18 C         140.7768  141.3379  163.0897 C.3     1  UNL1        0.1525
     19 S         139.2990  141.4378  162.8530 S.O2    1  UNL1       -0.0082
     20 C         137.8211  141.5377  162.6164 C.3     1  UNL1        0.1760
     21 O         139.2145  139.9437  162.7507 O.2     1  UNL1       -0.1729
     22 O         139.3836  142.9319  162.9554 O.2     1  UNL1       -0.1729
     23 N         142.9795  136.9173  159.8527 N.am    1  UNL1       -0.2935
     24 C         142.6656  137.3676  158.4568 C.2     1  UNL1        0.2639
     25 O         142.5377  138.8306  158.1516 O.2     1  UNL1       -0.2685
     26 H         143.0635  135.9570  160.0530 H       1  UNL1        0.1502
     27 C         142.4795  136.3548  157.3661 C.ar    1  UNL1        0.1340
     28 C         141.4773  136.6006  156.2775 C.ar    1  UNL1        0.0237
     29 C         141.2912  135.5878  155.1867 C.ar    1  UNL1        0.0029
     30 C         142.1073  134.3293  155.1846 C.ar    1  UNL1        0.0147
     31 C         143.1095  134.0835  156.2733 C.ar    1  UNL1        0.0584
     32 N         143.2956  135.0963  157.3640 N.ar    1  UNL1       -0.2451
     33 C         143.9256  132.8249  156.2712 C.3     1  UNL1        0.0355
     34 C         143.3767  132.4712  154.9208 C.3     1  UNL1        0.0059
     35 C         144.4745  133.1786  157.6216 C.3     1  UNL1        0.0059
     36 C         144.7417  131.5664  156.2691 C.3     1  UNL1        0.0059
@<TRIPOS>BOND
     1    15    16    1
     2    16    17    1
     3    16    13    1
     4    13    14    1
     5     7    13    1
     6     7     8    1
     7     8     9    1
     8     9    10    1
     9    10     1    1
    10     1     2    1
    11     2     3    1
    12     3     4    1
    13     4    23    1
    14    23    24   am
    15    24    25    2
    16    24    27    1
    17    27    28   ar
    18    28    29   ar
    19    29    30   ar
    20    30    31   ar
    21    31    33    1
    22    33    34    1
    23    33    35    1
    24    33    36    1
    25    31    32   ar
    26     4     5    1
    27     5     6    2
    28    10    11    1
    29    11    18    1
    30    18    19    1
    31    19    20    1
    32    19    21    2
    33    19    22    2
    34    11    12    1
    35    12     7    1
    36     5     1   am
    37    32    27   ar
    38    23    26    1
@<TRIPOS>MOLECULE
*****
 36 38 0 0 0
SMALL
GASTEIGER

@<TRIPOS>ATOM
      1 N         141.2715  139.9784  162.9009 N.am    1  UNL1       -0.2797
      2 C         141.2694  141.1778  162.0001 C.3     1  UNL1        0.0956
      3 C         141.3447  140.6931  160.5826 C.3     1  UNL1        0.0505
      4 C         141.3933  139.1941  160.6072 C.3     1  UNL1        0.1507
      5 C         141.3481  138.7524  162.0400 C.2     1  UNL1        0.2435
      6 O         141.3748  137.3337  162.5265 O.2     1  UNL1       -0.2731
      7 C         141.0814  140.0462  167.3964 C.3     1  UNL1        0.0577
      8 C         142.3799  140.3180  166.6964 C.3     1  UNL1        0.0177
      9 C         142.4433  140.2954  165.1979 C.3     1  UNL1        0.0212
     10 C         141.2081  140.0010  164.3994 C.3     1  UNL1        0.0771
     11 C         139.9096  139.7292  165.0993 C.3     1  UNL1        0.0432
     12 C         139.8463  139.7518  166.5978 C.3     1  UNL1        0.0194
     13 N         141.0180  140.0688  168.8949 N.3     1  UNL1       -0.2741
     14 C         142.0157  139.2897  169.6995 C.3     1  UNL1        0.0896
     15 C         138.6760  140.2136  170.0100 C.3     1  UNL1        0.0173
     16 C         139.9570  140.8705  169.5887 C.3     1  UNL1        0.0576
     17 C         140.1769  142.3291  169.8611 C.3     1  UNL1        0.0173
     18 C         138.6744  139.4348  164.3008 C.3     1  UNL1        0.1525
     19 S         137.9767  140.5394  163.5639 S.O2    1  UNL1       -0.0082
     20 C         137.2789  141.6441  162.8271 C.3     1  UNL1        0.1760
     21 O         137.9242  139.6847  162.3324 O.2     1  UNL1       -0.1729
     22 O         138.0291  141.3940  164.7955 O.2     1  UNL1       -0.1729
     23 N         141.4732  138.2947  159.4095 N.am    1  UNL1       -0.2935
     24 C         142.7235  138.2575  158.5815 C.2     1  UNL1        0.2639
     25 O         143.8939  139.1196  158.9514 O.2     1  UNL1       -0.2685
     26 H         140.7050  137.7289  159.1667 H       1  UNL1        0.1502
     27 C         142.8033  137.3581  157.3838 C.ar    1  UNL1        0.1340
     28 C         142.8835  137.9480  156.0070 C.ar    1  UNL1        0.0237
     29 C         142.9633  137.0486  154.8091 C.ar    1  UNL1        0.0029
     30 C         142.9629  135.5593  154.9881 C.ar    1  UNL1        0.0147
     31 C         142.8827  134.9694  156.3650 C.ar    1  UNL1        0.0584
     32 N         142.8029  135.8688  157.5628 N.ar    1  UNL1       -0.2451
     33 C         142.8823  133.4801  156.5440 C.3     1  UNL1        0.0355
     34 C         144.0030  133.5988  157.5338 C.3     1  UNL1        0.0059
     35 C         141.7616  133.3615  155.5541 C.3     1  UNL1        0.0059
     36 C         142.8819  131.9909  156.7230 C.3     1  UNL1        0.0059
@<TRIPOS>BOND
     1    15    16    1
     2    16    17    1
     3    16    13    1
     4    13    14    1
     5     7    13    1
     6     7     8    1
     7     8     9    1
     8     9    10    1
     9    10     1    1
    10     1     2    1
    11     2     3    1
    12     3     4    1
    13     4    23    1
    14    23    24   am
    15    24    25    2
    16    24    27    1
    17    27    28   ar
    18    28    29   ar
    19    29    30   ar
    20    30    31   ar
    21    31    33    1
    22    33    34    1
    23    33    35    1
    24    33    36    1
    25    31    32   ar
    26     4     5    1
    27     5     6    2
    28    10    11    1
    29    11    18    1
    30    18    19    1
    31    19    20    1
    32    19    21    2
    33    19    22    2
    34    11    12    1
    35    12     7    1
    36     5     1   am
    37    32    27   ar
    38    23    26    1
@<TRIPOS>MOLECULE
*****
 36 38 0 0 0
SMALL
GASTEIGER

@<TRIPOS>ATOM
      1 N         140.8178  144.0135  163.5440 N.am    1  UNL1       -0.2797
      2 C         140.6120  145.4992  163.5666 C.3     1  UNL1        0.0956
      3 C         140.1685  145.9266  162.1989 C.3     1  UNL1        0.0505
      4 C         140.1001  144.7051  161.3310 C.3     1  UNL1        0.1507
      5 C         140.5014  143.5228  162.1623 C.2     1  UNL1        0.2435
      6 O         140.5736  142.0996  161.6941 O.2     1  UNL1       -0.2731
      7 C         142.1502  141.4747  167.0122 C.3     1  UNL1        0.0577
      8 C         140.6933  141.5693  166.6681 C.3     1  UNL1        0.0177
      9 C         140.2492  142.4156  165.5120 C.3     1  UNL1        0.0212
     10 C         141.2619  143.1672  164.7001 C.3     1  UNL1        0.0771
     11 C         142.7188  143.0726  165.0442 C.3     1  UNL1        0.0432
     12 C         143.1629  142.2263  166.2003 C.3     1  UNL1        0.0194
     13 N         142.5943  140.6284  168.1683 N.3     1  UNL1       -0.2741
     14 C         142.8613  139.1660  167.9683 C.3     1  UNL1        0.0896
     15 C         141.8700  140.8431  170.6541 C.3     1  UNL1        0.0173
     16 C         142.7715  141.2445  169.5244 C.3     1  UNL1        0.0576
     17 C         143.8502  142.2620  169.7508 C.3     1  UNL1        0.0173
     18 C         143.7316  143.8243  164.2323 C.3     1  UNL1        0.1525
     19 S         144.0884  143.3516  162.8541 S.O2    1  UNL1       -0.0082
     20 C         144.4452  142.8788  161.4760 C.3     1  UNL1        0.1760
     21 O         143.8889  144.7412  162.3259 O.2     1  UNL1       -0.1729
     22 O         144.2879  141.9620  163.3824 O.2     1  UNL1       -0.1729
     23 N         139.7006  144.6718  159.8856 N.am    1  UNL1       -0.2935
     24 C         140.6704  145.1116  158.8290 C.2     1  UNL1        0.2639
     25 O         142.0396  145.5848  159.2180 O.2     1  UNL1       -0.2685
     26 H         138.8020  144.3612  159.6303 H       1  UNL1        0.1502
     27 C         140.2708  145.0783  157.3837 C.ar    1  UNL1        0.1340
     28 C         139.8011  143.7951  156.7649 C.ar    1  UNL1        0.0237
     29 C         139.4015  143.7617  155.3194 C.ar    1  UNL1        0.0029
     30 C         139.4716  145.0114  154.4928 C.ar    1  UNL1        0.0147
     31 C         139.9414  146.2946  155.1116 C.ar    1  UNL1        0.0584
     32 N         140.3410  146.3280  156.5571 N.ar    1  UNL1       -0.2451
     33 C         140.0115  147.5443  154.2850 C.3     1  UNL1        0.0355
     34 C         139.0768  148.2275  155.2386 C.3     1  UNL1        0.0059
     35 C         140.9463  146.8610  153.3314 C.3     1  UNL1        0.0059
     36 C         140.0817  148.7940  153.4584 C.3     1  UNL1        0.0059
@<TRIPOS>BOND
     1    15    16    1
     2    16    17    1
     3    16    13    1
     4    13    14    1
     5     7    13    1
     6     7     8    1
     7     8     9    1
     8     9    10    1
     9    10     1    1
    10     1     2    1
    11     2     3    1
    12     3     4    1
    13     4    23    1
    14    23    24   am
    15    24    25    2
    16    24    27    1
    17    27    28   ar
    18    28    29   ar
    19    29    30   ar
    20    30    31   ar
    21    31    33    1
    22    33    34    1
    23    33    35    1
    24    33    36    1
    25    31    32   ar
    26     4     5    1
    27     5     6    2
    28    10    11    1
    29    11    18    1
    30    18    19    1
    31    19    20    1
    32    19    21    2
    33    19    22    2
    34    11    12    1
    35    12     7    1
    36     5     1   am
    37    32    27   ar
    38    23    26    1
@<TRIPOS>MOLECULE
*****
 36 38 0 0 0
SMALL
GASTEIGER

@<TRIPOS>ATOM
      1 N         140.8913  140.0125  162.2705 N.am    1  UNL1       -0.2797
      2 C         140.6102  141.1621  161.3488 C.3     1  UNL1        0.0956
      3 C         140.6231  140.6421  159.9419 C.3     1  UNL1        0.0505
      4 C         140.9122  139.1712  159.9940 C.3     1  UNL1        0.1507
      5 C         141.0780  138.7821  161.4332 C.2     1  UNL1        0.2435
      6 O         141.3778  137.4044  161.9451 O.2     1  UNL1       -0.2731
      7 C         141.1323  140.2190  166.7593 C.3     1  UNL1        0.0577
      8 C         139.8088  140.3763  166.0712 C.3     1  UNL1        0.0177
      9 C         139.7284  140.3074  164.5750 C.3     1  UNL1        0.0212
     10 C         140.9717  140.0814  163.7668 C.3     1  UNL1        0.0771
     11 C         142.2952  139.9241  164.4548 C.3     1  UNL1        0.0432
     12 C         142.3755  139.9929  165.9511 C.3     1  UNL1        0.0194
     13 N         141.2127  140.2878  168.2555 N.3     1  UNL1       -0.2741
     14 C         142.2220  139.4574  168.9914 C.3     1  UNL1        0.0896
     15 C         140.4621  142.6752  168.9535 C.3     1  UNL1        0.0173
     16 C         140.2837  141.1871  169.0159 C.3     1  UNL1        0.0576
     17 C         139.1763  140.5984  169.8388 C.3     1  UNL1        0.0173
     18 C         143.5385  139.6980  163.6466 C.3     1  UNL1        0.1525
     19 S         144.6792  140.6677  163.7381 S.O2    1  UNL1       -0.0082
     20 C         145.8200  141.6375  163.8296 C.3     1  UNL1        0.1760
     21 O         143.8548  141.7040  163.0335 O.2     1  UNL1       -0.1729
     22 O         145.5036  139.6315  164.4427 O.2     1  UNL1       -0.1729
     23 N         141.0172  138.2508  158.8142 N.am    1  UNL1       -0.2935
     24 C         142.3229  138.1052  158.0903 C.2     1  UNL1        0.2639
     25 O         143.5237  138.8799  158.5463 O.2     1  UNL1       -0.2685
     26 H         140.2291  137.7424  158.5149 H       1  UNL1        0.1502
     27 C         142.4278  137.1849  156.9106 C.ar    1  UNL1        0.1340
     28 C         142.4681  137.7485  155.5210 C.ar    1  UNL1        0.0237
     29 C         142.5730  136.8282  154.3411 C.ar    1  UNL1        0.0029
     30 C         142.6375  135.3443  154.5508 C.ar    1  UNL1        0.0147
     31 C         142.5972  134.7807  155.9403 C.ar    1  UNL1        0.0584
     32 N         142.4923  135.7011  157.1202 N.ar    1  UNL1       -0.2451
     33 C         142.6617  133.2969  156.1500 C.3     1  UNL1        0.0355
     34 C         141.5041  133.1142  155.2138 C.3     1  UNL1        0.0059
     35 C         143.8194  133.4795  157.0862 C.3     1  UNL1        0.0059
     36 C         142.7263  131.8130  156.3596 C.3     1  UNL1        0.0059
@<TRIPOS>BOND
     1    15    16    1
     2    16    17    1
     3    16    13    1
     4    13    14    1
     5     7    13    1
     6     7     8    1
     7     8     9    1
     8     9    10    1
     9    10     1    1
    10     1     2    1
    11     2     3    1
    12     3     4    1
    13     4    23    1
    14    23    24   am
    15    24    25    2
    16    24    27    1
    17    27    28   ar
    18    28    29   ar
    19    29    30   ar
    20    30    31   ar
    21    31    33    1
    22    33    34    1
    23    33    35    1
    24    33    36    1
    25    31    32   ar
    26     4     5    1
    27     5     6    2
    28    10    11    1
    29    11    18    1
    30    18    19    1
    31    19    20    1
    32    19    21    2
    33    19    22    2
    34    11    12    1
    35    12     7    1
    36     5     1   am
    37    32    27   ar
    38    23    26    1
@<TRIPOS>MOLECULE
*****
 36 38 0 0 0
SMALL
GASTEIGER

@<TRIPOS>ATOM
      1 N         143.1987  143.0945  164.0284 N.am    1  UNL1       -0.2797
      2 C         143.7971  144.4031  163.6050 C.3     1  UNL1        0.0956
      3 C         144.4155  144.2139  162.2516 C.3     1  UNL1        0.0505
      4 C         144.1992  142.7882  161.8384 C.3     1  UNL1        0.1507
      5 C         143.4472  142.0964  162.9366 C.2     1  UNL1        0.2435
      6 O         143.0190  140.6588  162.9419 O.2     1  UNL1       -0.2731
      7 C         141.0374  142.3018  167.8950 C.3     1  UNL1        0.0577
      8 C         142.4961  141.9749  167.7704 C.3     1  UNL1        0.0177
      9 C         143.2165  142.2391  166.4816 C.3     1  UNL1        0.0212
     10 C         142.4783  142.8302  165.3173 C.3     1  UNL1        0.0771
     11 C         141.0197  143.1571  165.4418 C.3     1  UNL1        0.0432
     12 C         140.2993  142.8929  166.7307 C.3     1  UNL1        0.0194
     13 N         140.3170  142.0376  169.1839 N.3     1  UNL1       -0.2741
     14 C         140.0936  143.1538  170.1606 C.3     1  UNL1        0.0896
     15 C         139.0968  139.8655  168.4471 C.3     1  UNL1        0.0173
     16 C         139.8201  140.6572  169.4960 C.3     1  UNL1        0.0576
     17 C         140.0464  140.0684  170.8569 C.3     1  UNL1        0.0173
     18 C         140.2814  143.7482  164.2775 C.3     1  UNL1        0.1525
     19 S         138.9769  143.1535  163.8365 S.O2    1  UNL1       -0.0082
     20 C         137.6723  142.5588  163.3955 C.3     1  UNL1        0.1760
     21 O         139.6944  141.9177  163.3805 O.2     1  UNL1       -0.1729
     22 O         138.2594  144.3893  164.2924 O.2     1  UNL1       -0.1729
     23 N         144.6550  142.1639  160.5529 N.am    1  UNL1       -0.2935
     24 C         143.7150  142.0761  159.3872 C.2     1  UNL1        0.2639
     25 O         142.3194  142.6124  159.5070 O.2     1  UNL1       -0.2685
     26 H         145.5710  141.8119  160.4742 H       1  UNL1        0.1502
     27 C         144.1708  141.4518  158.1018 C.ar    1  UNL1        0.1340
     28 C         143.4526  140.2545  157.5534 C.ar    1  UNL1        0.0237
     29 C         143.9084  139.6302  156.2679 C.ar    1  UNL1        0.0029
     30 C         145.0823  140.2032  155.5307 C.ar    1  UNL1        0.0147
     31 C         145.8006  141.4005  156.0790 C.ar    1  UNL1        0.0584
     32 N         145.3448  142.0248  157.3646 N.ar    1  UNL1       -0.2451
     33 C         146.9746  141.9734  155.3419 C.3     1  UNL1        0.0355
     34 C         147.4593  142.6115  156.6098 C.3     1  UNL1        0.0059
     35 C         146.4898  141.3353  154.0739 C.3     1  UNL1        0.0059
     36 C         148.1485  142.5464  154.6047 C.3     1  UNL1        0.0059
@<TRIPOS>BOND
     1    15    16    1
     2    16    17    1
     3    16    13    1
     4    13    14    1
     5     7    13    1
     6     7     8    1
     7     8     9    1
     8     9    10    1
     9    10     1    1
    10     1     2    1
    11     2     3    1
    12     3     4    1
    13     4    23    1
    14    23    24   am
    15    24    25    2
    16    24    27    1
    17    27    28   ar
    18    28    29   ar
    19    29    30   ar
    20    30    31   ar
    21    31    33    1
    22    33    34    1
    23    33    35    1
    24    33    36    1
    25    31    32   ar
    26     4     5    1
    27     5     6    2
    28    10    11    1
    29    11    18    1
    30    18    19    1
    31    19    20    1
    32    19    21    2
    33    19    22    2
    34    11    12    1
    35    12     7    1
    36     5     1   am
    37    32    27   ar
    38    23    26    1
@<TRIPOS>MOLECULE
*****
 36 38 0 0 0
SMALL
GASTEIGER

@<TRIPOS>ATOM
      1 N         143.1943  139.0856  163.3378 N.am    1  UNL1       -0.2797
      2 C         144.3355  139.6211  162.5248 C.3     1  UNL1        0.0956
      3 C         144.3213  138.9293  161.1940 C.3     1  UNL1        0.0505
      4 C         143.1714  137.9662  161.1844 C.3     1  UNL1        0.1507
      5 C         142.4749  138.0629  162.5094 C.2     1  UNL1        0.2435
      6 O         141.2703  137.2750  162.9317 O.2     1  UNL1       -0.2731
      7 C         142.1181  140.3292  167.5265 C.3     1  UNL1        0.0577
      8 C         142.9340  139.0915  167.2979 C.3     1  UNL1        0.0177
      9 C         143.2928  138.6770  165.9016 C.3     1  UNL1        0.0212
     10 C         142.8356  139.5001  164.7341 C.3     1  UNL1        0.0771
     11 C         142.0197  140.7378  164.9627 C.3     1  UNL1        0.0432
     12 C         141.6609  141.1524  166.3590 C.3     1  UNL1        0.0194
     13 N         141.7594  140.7437  168.9228 N.3     1  UNL1       -0.2741
     14 C         140.9166  139.8453  169.7787 C.3     1  UNL1        0.0896
     15 C         143.7096  142.2807  169.6869 C.3     1  UNL1        0.0173
     16 C         142.2435  142.0565  169.4631 C.3     1  UNL1        0.0576
     17 C         141.2614  143.1453  169.7798 C.3     1  UNL1        0.0173
     18 C         141.5624  141.5611  163.7951 C.3     1  UNL1        0.1525
     19 S         141.5836  143.0586  163.8791 S.O2    1  UNL1       -0.0082
     20 C         141.6047  144.5561  163.9632 C.3     1  UNL1        0.1760
     21 O         143.0803  143.0429  163.7816 O.2     1  UNL1       -0.1729
     22 O         140.0869  143.0742  163.9767 O.2     1  UNL1       -0.1729
     23 N         142.7857  137.0648  160.0492 N.am    1  UNL1       -0.2935
     24 C         142.8660  137.5618  158.6362 C.2     1  UNL1        0.2639
     25 O         143.3321  138.9602  158.3584 O.2     1  UNL1       -0.2685
     26 H         142.4797  136.1470  160.2316 H       1  UNL1        0.1502
     27 C         142.4803  136.6603  157.5011 C.ar    1  UNL1        0.1340
     28 C         143.1664  135.3378  157.3273 C.ar    1  UNL1        0.0237
     29 C         142.7806  134.4362  156.1921 C.ar    1  UNL1        0.0029
     30 C         141.7088  134.8572  155.2309 C.ar    1  UNL1        0.0147
     31 C         141.0227  136.1798  155.4047 C.ar    1  UNL1        0.0584
     32 N         141.4085  137.0813  156.5399 N.ar    1  UNL1       -0.2451
     33 C         139.9510  136.6008  154.4435 C.3     1  UNL1        0.0355
     34 C         140.7807  136.0996  153.2988 C.3     1  UNL1        0.0059
     35 C         139.1212  137.1020  155.5881 C.3     1  UNL1        0.0059
     36 C         138.8792  137.0218  153.4822 C.3     1  UNL1        0.0059
@<TRIPOS>BOND
     1    15    16    1
     2    16    17    1
     3    16    13    1
     4    13    14    1
     5     7    13    1
     6     7     8    1
     7     8     9    1
     8     9    10    1
     9    10     1    1
    10     1     2    1
    11     2     3    1
    12     3     4    1
    13     4    23    1
    14    23    24   am
    15    24    25    2
    16    24    27    1
    17    27    28   ar
    18    28    29   ar
    19    29    30   ar
    20    30    31   ar
    21    31    33    1
    22    33    34    1
    23    33    35    1
    24    33    36    1
    25    31    32   ar
    26     4     5    1
    27     5     6    2
    28    10    11    1
    29    11    18    1
    30    18    19    1
    31    19    20    1
    32    19    21    2
    33    19    22    2
    34    11    12    1
    35    12     7    1
    36     5     1   am
    37    32    27   ar
    38    23    26    1
@<TRIPOS>MOLECULE
*****
 36 38 0 0 0
SMALL
GASTEIGER

@<TRIPOS>ATOM
      1 N         139.1506  142.0959  163.9755 N.am    1  UNL1       -0.2797
      2 C         137.7826  142.5507  163.5610 C.3     1  UNL1        0.0956
      3 C         137.8239  142.8686  162.0957 C.3     1  UNL1        0.0505
      4 C         139.2175  142.6103  161.6045 C.3     1  UNL1        0.1507
      5 C         140.0374  142.1328  162.7663 C.2     1  UNL1        0.2435
      6 O         141.4892  141.7579  162.7259 O.2     1  UNL1       -0.2731
      7 C         140.3785  140.8414  168.1189 C.3     1  UNL1        0.0577
      8 C         140.7351  142.2074  167.6124 C.3     1  UNL1        0.0177
      9 C         140.3258  142.6256  166.2312 C.3     1  UNL1        0.0212
     10 C         139.5599  141.6777  165.3566 C.3     1  UNL1        0.0771
     11 C         139.2034  140.3117  165.8632 C.3     1  UNL1        0.0432
     12 C         139.6127  139.8935  167.2444 C.3     1  UNL1        0.0194
     13 N         140.7878  140.4232  169.5001 N.3     1  UNL1       -0.2741
     14 C         139.7636  140.3388  170.5926 C.3     1  UNL1        0.0896
     15 C         142.6411  138.6580  169.9467 C.3     1  UNL1        0.0173
     16 C         142.2214  140.0894  169.7887 C.3     1  UNL1        0.0576
     17 C         143.2354  141.1871  169.9194 C.3     1  UNL1        0.0173
     18 C         138.4375  139.3637  164.9886 C.3     1  UNL1        0.1525
     19 S         139.1508  138.5798  163.9272 S.O2    1  UNL1       -0.0082
     20 C         139.8642  137.7959  162.8657 C.3     1  UNL1        0.1760
     21 O         140.1213  138.0740  164.9530 O.2     1  UNL1       -0.1729
     22 O         138.1804  139.0856  162.9014 O.2     1  UNL1       -0.1729
     23 N         139.7055  142.7968  160.1984 N.am    1  UNL1       -0.2935
     24 C         139.9209  144.1788  159.6563 C.2     1  UNL1        0.2639
     25 O         139.6483  145.3742  160.5203 O.2     1  UNL1       -0.2685
     26 H         139.8844  142.0122  159.6313 H       1  UNL1        0.1502
     27 C         140.4089  144.3652  158.2503 C.ar    1  UNL1        0.1340
     28 C         141.3400  143.3598  157.6401 C.ar    1  UNL1        0.0237
     29 C         141.8280  143.5462  156.2339 C.ar    1  UNL1        0.0029
     30 C         141.3850  144.7380  155.4381 C.ar    1  UNL1        0.0147
     31 C         140.4539  145.7433  156.0483 C.ar    1  UNL1        0.0584
     32 N         139.9659  145.5569  157.4544 N.ar    1  UNL1       -0.2451
     33 C         140.0109  146.9351  155.2524 C.3     1  UNL1        0.0355
     34 C         139.1908  147.4074  156.4161 C.3     1  UNL1        0.0059
     35 C         140.8309  146.4627  154.0886 C.3     1  UNL1        0.0059
     36 C         139.5678  148.1268  154.4565 C.3     1  UNL1        0.0059
@<TRIPOS>BOND
     1    15    16    1
     2    16    17    1
     3    16    13    1
     4    13    14    1
     5     7    13    1
     6     7     8    1
     7     8     9    1
     8     9    10    1
     9    10     1    1
    10     1     2    1
    11     2     3    1
    12     3     4    1
    13     4    23    1
    14    23    24   am
    15    24    25    2
    16    24    27    1
    17    27    28   ar
    18    28    29   ar
    19    29    30   ar
    20    30    31   ar
    21    31    33    1
    22    33    34    1
    23    33    35    1
    24    33    36    1
    25    31    32   ar
    26     4     5    1
    27     5     6    2
    28    10    11    1
    29    11    18    1
    30    18    19    1
    31    19    20    1
    32    19    21    2
    33    19    22    2
    34    11    12    1
    35    12     7    1
    36     5     1   am
    37    32    27   ar
    38    23    26    1
@<TRIPOS>MOLECULE
*****
 36 38 0 0 0
SMALL
GASTEIGER

@<TRIPOS>ATOM
      1 N         138.8598  139.2800  163.5451 N.am    1  UNL1       -0.2797
      2 C         138.7953  137.9525  162.8497 C.3     1  UNL1        0.0956
      3 C         138.3314  138.1882  161.4428 C.3     1  UNL1        0.0505
      4 C         138.1092  139.6615  161.2687 C.3     1  UNL1        0.1507
      5 C         138.4358  140.3362  162.5680 C.2     1  UNL1        0.2435
      6 O         138.3530  141.8086  162.8420 O.2     1  UNL1       -0.2731
      7 C         140.1066  139.9724  167.8131 C.3     1  UNL1        0.0577
      8 C         138.7189  139.4933  167.5054 C.3     1  UNL1        0.0177
      9 C         138.3033  139.2625  166.0828 C.3     1  UNL1        0.0212
     10 C         139.2754  139.5108  164.9677 C.3     1  UNL1        0.0771
     11 C         140.6631  139.9900  165.2754 C.3     1  UNL1        0.0432
     12 C         141.0787  140.2208  166.6981 C.3     1  UNL1        0.0194
     13 N         140.5222  140.2032  169.2358 N.3     1  UNL1       -0.2741
     14 C         139.4941  140.5554  170.2697 C.3     1  UNL1        0.0896
     15 C         142.8117  141.3130  169.7614 C.3     1  UNL1        0.0173
     16 C         141.9658  140.0819  169.6245 C.3     1  UNL1        0.0576
     17 C         142.5636  138.7293  169.8764 C.3     1  UNL1        0.0173
     18 C         141.6353  140.2384  164.1604 C.3     1  UNL1        0.1525
     19 S         143.0522  139.7612  164.2805 S.O2    1  UNL1       -0.0082
     20 C         144.4693  139.2840  164.4007 C.3     1  UNL1        0.1760
     21 O         142.5827  138.3405  164.1761 O.2     1  UNL1       -0.1729
     22 O         143.5218  141.1819  164.3850 O.2     1  UNL1       -0.1729
     23 N         137.6425  140.3407  160.0154 N.am    1  UNL1       -0.2935
     24 C         138.6166  141.1064  159.1699 C.2     1  UNL1        0.2639
     25 O         140.0575  141.1929  159.5777 O.2     1  UNL1       -0.2685
     26 H         136.6968  140.2839  159.7477 H       1  UNL1        0.1502
     27 C         138.1497  141.7856  157.9167 C.ar    1  UNL1        0.1340
     28 C         138.8264  143.0389  157.4462 C.ar    1  UNL1        0.0237
     29 C         138.3596  143.7182  156.1929 C.ar    1  UNL1        0.0029
     30 C         137.2161  143.1441  155.4101 C.ar    1  UNL1        0.0147
     31 C         136.5394  141.8908  155.8805 C.ar    1  UNL1        0.0584
     32 N         137.0062  141.2115  157.1339 N.ar    1  UNL1       -0.2451
     33 C         135.3959  141.3168  155.0977 C.3     1  UNL1        0.0355
     34 C         134.9143  140.6019  156.3254 C.3     1  UNL1        0.0059
     35 C         135.8774  142.0316  153.8701 C.3     1  UNL1        0.0059
     36 C         134.2523  140.7427  154.3149 C.3     1  UNL1        0.0059
@<TRIPOS>BOND
     1    15    16    1
     2    16    17    1
     3    16    13    1
     4    13    14    1
     5     7    13    1
     6     7     8    1
     7     8     9    1
     8     9    10    1
     9    10     1    1
    10     1     2    1
    11     2     3    1
    12     3     4    1
    13     4    23    1
    14    23    24   am
    15    24    25    2
    16    24    27    1
    17    27    28   ar
    18    28    29   ar
    19    29    30   ar
    20    30    31   ar
    21    31    33    1
    22    33    34    1
    23    33    35    1
    24    33    36    1
    25    31    32   ar
    26     4     5    1
    27     5     6    2
    28    10    11    1
    29    11    18    1
    30    18    19    1
    31    19    20    1
    32    19    21    2
    33    19    22    2
    34    11    12    1
    35    12     7    1
    36     5     1   am
    37    32    27   ar
    38    23    26    1
@<TRIPOS>MOLECULE
*****
 36 38 0 0 0
SMALL
GASTEIGER

@<TRIPOS>ATOM
      1 N         140.0937  139.3193  163.3732 N.am    1  UNL1       -0.2797
      2 C         138.9907  138.3648  163.0234 C.3     1  UNL1        0.0956
      3 C         139.1263  138.0115  161.5719 C.3     1  UNL1        0.0505
      4 C         140.3131  138.7478  161.0246 C.3     1  UNL1        0.1507
      5 C         140.9109  139.5560  162.1378 C.2     1  UNL1        0.2435
      6 O         142.1147  140.4449  162.0340 O.2     1  UNL1       -0.2731
      7 C         140.8228  141.1512  167.4183 C.3     1  UNL1        0.0577
      8 C         141.4774  139.8516  167.0545 C.3     1  UNL1        0.0177
      9 C         141.2344  139.2410  165.7061 C.3     1  UNL1        0.0212
     10 C         140.3367  139.9299  164.7215 C.3     1  UNL1        0.0771
     11 C         139.6820  141.2295  165.0854 C.3     1  UNL1        0.0432
     12 C         139.9250  141.8401  166.4337 C.3     1  UNL1        0.0194
     13 N         141.0658  141.7618  168.7666 N.3     1  UNL1       -0.2741
     14 C         142.4013  142.3646  169.0873 C.3     1  UNL1        0.0896
     15 C         139.0824  140.5730  169.9511 C.3     1  UNL1        0.0173
     16 C         139.9732  141.7696  169.7944 C.3     1  UNL1        0.0576
     17 C         139.7715  142.9741  170.6654 C.3     1  UNL1        0.0173
     18 C         138.7843  141.9186  164.1008 C.3     1  UNL1        0.1525
     19 S         138.9884  143.3715  163.7888 S.O2    1  UNL1       -0.0082
     20 C         139.1926  144.8244  163.4768 C.3     1  UNL1        0.1760
     21 O         137.6966  143.7006  164.4764 O.2     1  UNL1       -0.1729
     22 O         140.2802  143.0423  163.1012 O.2     1  UNL1       -0.1729
     23 N         140.8140  138.6866  159.6120 N.am    1  UNL1       -0.2935
     24 C         142.1390  138.0502  159.3131 C.2     1  UNL1        0.2639
     25 O         142.9631  137.4750  160.4267 O.2     1  UNL1       -0.2685
     26 H         140.2732  139.0641  158.8811 H       1  UNL1        0.1502
     27 C         142.6399  137.9890  157.9006 C.ar    1  UNL1        0.1340
     28 C         143.3013  139.1873  157.2868 C.ar    1  UNL1        0.0237
     29 C         143.8022  139.1261  155.8742 C.ar    1  UNL1        0.0029
     30 C         143.6418  137.8667  155.0754 C.ar    1  UNL1        0.0147
     31 C         142.9805  136.6684  155.6892 C.ar    1  UNL1        0.0584
     32 N         142.4795  136.7295  157.1018 N.ar    1  UNL1       -0.2451
     33 C         142.8201  135.4089  154.8904 C.3     1  UNL1        0.0355
     34 C         142.0848  136.1747  153.8307 C.3     1  UNL1        0.0059
     35 C         143.5553  134.6432  155.9501 C.3     1  UNL1        0.0059
     36 C         142.6596  134.1495  154.0916 C.3     1  UNL1        0.0059
@<TRIPOS>BOND
     1    15    16    1
     2    16    17    1
     3    16    13    1
     4    13    14    1
     5     7    13    1
     6     7     8    1
     7     8     9    1
     8     9    10    1
     9    10     1    1
    10     1     2    1
    11     2     3    1
    12     3     4    1
    13     4    23    1
    14    23    24   am
    15    24    25    2
    16    24    27    1
    17    27    28   ar
    18    28    29   ar
    19    29    30   ar
    20    30    31   ar
    21    31    33    1
    22    33    34    1
    23    33    35    1
    24    33    36    1
    25    31    32   ar
    26     4     5    1
    27     5     6    2
    28    10    11    1
    29    11    18    1
    30    18    19    1
    31    19    20    1
    32    19    21    2
    33    19    22    2
    34    11    12    1
    35    12     7    1
    36     5     1   am
    37    32    27   ar
    38    23    26    1
