@<TRIPOS>MOLECULE
*****
 38 41 0 0 0
SMALL
GASTEIGER

@<TRIPOS>ATOM
      1 C         142.4982  138.3958  157.9734 C.ar    1  UNL1        0.1459
      2 C         141.0136  138.2313  158.1111 C.ar    1  UNL1        0.0391
      3 C         140.2713  138.9830  159.1759 C.ar    1  UNL1        0.0228
      4 C         141.0136  139.8992  160.1031 C.ar    1  UNL1        0.0894
      5 N         140.5548  140.7642  161.2395 N.ar    1  UNL1       -0.2239
      6 C         141.7558  141.4633  161.8041 C.ar    1  UNL1        0.1667
      7 S         142.9569  141.0303  161.0167 S.2     1  UNL1       -0.0512
      8 C         142.4982  140.0637  159.9654 C.ar    1  UNL1        0.0528
      9 C         143.2404  139.3120  158.9006 C.ar    1  UNL1        0.0456
     10 N         141.7558  142.4263  162.9542 N.am    1  UNL1       -0.2482
     11 C         141.7850  141.9119  164.3630 C.2     1  UNL1        0.3096
     12 O         141.8141  140.4346  164.6216 O.2     1  UNL1       -0.2521
     13 N         141.7850  142.8748  165.5131 N.am    1  UNL1       -0.2680
     14 H         141.7367  143.3958  162.7845 H       1  UNL1        0.1583
     15 H         141.7658  143.8444  165.3433 H       1  UNL1        0.1564
     16 C         141.8141  142.3605  166.9219 C.ar    1  UNL1        0.0516
     17 C         143.1047  142.3391  167.6859 C.ar    1  UNL1        0.0156
     18 C         143.1339  141.8248  169.0947 C.ar    1  UNL1        0.0126
     19 C         141.8724  141.3319  169.7394 C.ar    1  UNL1        0.0616
     20 CL        141.9016  140.8176  171.1482 Cl      1  UNL1       -0.0823
     21 C         140.5818  141.3534  168.9754 C.ar    1  UNL1        0.0832
     22 C         140.5527  141.8677  167.5666 C.ar    1  UNL1        0.0194
     23 C         139.3202  140.8605  169.6201 C.3     1  UNL1        0.4194
     24 F         138.0587  140.3677  170.2649 F       1  UNL1       -0.1658
     25 F         139.4617  139.5535  168.8977 F       1  UNL1       -0.1658
     26 F         139.1789  142.1675  170.3425 F       1  UNL1       -0.1658
     27 O         143.2405  137.6441  156.9085 O.3     1  UNL1       -0.4534
     28 C         143.1469  133.6771  156.8435 C.ar    1  UNL1        0.1375
     29 C         143.5494  135.0799  157.1904 C.ar    1  UNL1        0.0612
     30 C         142.8381  136.2413  156.5617 C.ar    1  UNL1        0.1485
     31 C         141.7244  136.0000  155.5863 C.ar    1  UNL1        0.0582
     32 C         141.3220  134.5972  155.2395 C.ar    1  UNL1        0.1021
     33 N         142.0333  133.4358  155.8681 N.ar    1  UNL1       -0.2391
     34 C         143.9584  129.9851  158.0523 C.3     1  UNL1        0.1110
     35 N         143.2471  131.1466  157.4236 N.am    1  UNL1       -0.2979
     36 C         143.8582  132.5157  157.4722 C.2     1  UNL1        0.2637
     37 O         145.1804  132.7233  158.1494 O.2     1  UNL1       -0.2685
     38 H         142.3793  131.0103  156.9792 H       1  UNL1        0.1498
@<TRIPOS>BOND
     1    34    35    1
     2    35    36   am
     3    36    37    2
     4    36    28    1
     5    28    29   ar
     6    29    30   ar
     7    30    27    1
     8    27     1    1
     9     1     2   ar
    10     2     3   ar
    11     3     4   ar
    12     4     5   ar
    13     5     6   ar
    14     6    10    1
    15    10    11   am
    16    11    12    2
    17    11    13   am
    18    13    16    1
    19    16    17   ar
    20    17    18   ar
    21    18    19   ar
    22    19    20    1
    23    19    21   ar
    24    21    23    1
    25    23    24    1
    26    23    25    1
    27    23    26    1
    28    21    22   ar
    29     6     7   ar
    30     7     8   ar
    31     8     9   ar
    32    30    31   ar
    33    31    32   ar
    34    32    33   ar
    35    33    28   ar
    36     9     1   ar
    37     8     4   ar
    38    22    16   ar
    39    35    38    1
    40    10    14    1
    41    13    15    1
@<TRIPOS>MOLECULE
*****
 38 41 0 0 0
SMALL
GASTEIGER

@<TRIPOS>ATOM
      1 C         138.5050  140.6599  157.5312 C.ar    1  UNL1        0.1459
      2 C         139.3352  139.4378  157.2722 C.ar    1  UNL1        0.0391
      3 C         139.7268  138.5423  158.4100 C.ar    1  UNL1        0.0228
      4 C         139.2882  138.8690  159.8068 C.ar    1  UNL1        0.0894
      5 N         139.5191  138.1789  161.1186 N.ar    1  UNL1       -0.2239
      6 C         138.8315  138.9746  162.1882 C.ar    1  UNL1        0.1667
      7 S         138.1758  140.1564  161.5375 S.2     1  UNL1       -0.0512
      8 C         138.4581  140.0911  160.0658 C.ar    1  UNL1        0.0528
      9 C         138.0664  140.9866  158.9279 C.ar    1  UNL1        0.0456
     10 N         138.8044  138.6462  163.6516 N.am    1  UNL1       -0.2482
     11 C         139.6698  139.4118  164.6082 C.2     1  UNL1        0.3096
     12 O         140.5622  140.5058  164.1013 O.2     1  UNL1       -0.2521
     13 N         139.6427  139.0835  166.0715 N.am    1  UNL1       -0.2680
     14 H         138.2187  137.9282  163.9842 H       1  UNL1        0.1583
     15 H         139.0570  138.3655  166.4041 H       1  UNL1        0.1564
     16 C         140.5081  139.8491  167.0281 C.ar    1  UNL1        0.0516
     17 C         141.9903  139.6202  167.0464 C.ar    1  UNL1        0.0156
     18 C         142.8557  140.3858  168.0030 C.ar    1  UNL1        0.0126
     19 C         142.2387  141.3803  168.9412 C.ar    1  UNL1        0.0616
     20 CL        143.1041  142.1459  169.8978 Cl      1  UNL1       -0.0823
     21 C         140.7565  141.6092  168.9229 C.ar    1  UNL1        0.0832
     22 C         139.8911  140.8436  167.9663 C.ar    1  UNL1        0.0194
     23 C         140.1394  142.6037  169.8612 C.3     1  UNL1        0.4194
     24 F         139.5224  143.5982  170.7993 F       1  UNL1       -0.1658
     25 F         140.0358  141.5433  170.9170 F       1  UNL1       -0.1658
     26 F         140.2431  143.6641  168.8053 F       1  UNL1       -0.1658
     27 O         138.1133  141.5555  156.3933 O.3     1  UNL1       -0.4534
     28 C         134.3527  140.4592  155.7563 C.ar    1  UNL1        0.1375
     29 C         135.6844  140.6339  156.4242 C.ar    1  UNL1        0.0612
     30 C         136.7816  141.3808  155.7254 C.ar    1  UNL1        0.1485
     31 C         136.5472  141.9529  154.3587 C.ar    1  UNL1        0.0582
     32 C         135.2155  141.7782  153.6909 C.ar    1  UNL1        0.1021
     33 N         134.1182  141.0313  154.3897 N.ar    1  UNL1       -0.2391
     34 C         130.7341  139.1426  156.7169 C.3     1  UNL1        0.1110
     35 N         131.8314  139.8894  156.0181 N.am    1  UNL1       -0.2979
     36 C         133.2554  139.7124  156.4551 C.2     1  UNL1        0.2637
     37 O         133.5821  138.7886  157.5907 O.2     1  UNL1       -0.2685
     38 H         131.6169  140.4958  155.2727 H       1  UNL1        0.1498
@<TRIPOS>BOND
     1    34    35    1
     2    35    36   am
     3    36    37    2
     4    36    28    1
     5    28    29   ar
     6    29    30   ar
     7    30    27    1
     8    27     1    1
     9     1     2   ar
    10     2     3   ar
    11     3     4   ar
    12     4     5   ar
    13     5     6   ar
    14     6    10    1
    15    10    11   am
    16    11    12    2
    17    11    13   am
    18    13    16    1
    19    16    17   ar
    20    17    18   ar
    21    18    19   ar
    22    19    20    1
    23    19    21   ar
    24    21    23    1
    25    23    24    1
    26    23    25    1
    27    23    26    1
    28    21    22   ar
    29     6     7   ar
    30     7     8   ar
    31     8     9   ar
    32    30    31   ar
    33    31    32   ar
    34    32    33   ar
    35    33    28   ar
    36     9     1   ar
    37     8     4   ar
    38    22    16   ar
    39    35    38    1
    40    10    14    1
    41    13    15    1
@<TRIPOS>MOLECULE
*****
 38 41 0 0 0
SMALL
GASTEIGER

@<TRIPOS>ATOM
      1 C         140.2052  141.7986  163.2775 C.ar    1  UNL1        0.1459
      2 C         139.1371  142.0527  162.2555 C.ar    1  UNL1        0.0391
      3 C         139.3604  141.6627  160.8245 C.ar    1  UNL1        0.0228
      4 C         140.6518  141.0184  160.4154 C.ar    1  UNL1        0.0894
      5 N         141.1534  140.5290  159.0892 N.ar    1  UNL1       -0.2239
      6 C         142.5315  139.9724  159.2916 C.ar    1  UNL1        0.1667
      7 S         142.8816  140.1178  160.7429 S.2     1  UNL1       -0.0512
      8 C         141.7199  140.7643  161.4375 C.ar    1  UNL1        0.0528
      9 C         141.4965  141.1543  162.8685 C.ar    1  UNL1        0.0456
     10 N         143.4061  139.3752  158.2292 N.am    1  UNL1       -0.2482
     11 C         142.9844  138.1166  157.5306 C.2     1  UNL1        0.3096
     12 O         141.6881  137.4551  157.8944 O.2     1  UNL1       -0.2521
     13 N         143.8589  137.5194  156.4683 N.am    1  UNL1       -0.2680
     14 H         144.2568  139.8094  157.9904 H       1  UNL1        0.1583
     15 H         144.7096  137.9535  156.2295 H       1  UNL1        0.1564
     16 C         143.4372  136.2608  155.7697 C.ar    1  UNL1        0.0516
     17 C         142.7118  136.3374  154.4590 C.ar    1  UNL1        0.0156
     18 C         142.2902  135.0788  153.7604 C.ar    1  UNL1        0.0126
     19 C         142.5938  133.7435  154.3726 C.ar    1  UNL1        0.0616
     20 CL        142.1721  132.4848  153.6740 Cl      1  UNL1       -0.0823
     21 C         143.3191  133.6668  155.6833 C.ar    1  UNL1        0.0832
     22 C         143.7408  134.9255  156.3818 C.ar    1  UNL1        0.0194
     23 C         143.6228  132.3315  156.2955 C.3     1  UNL1        0.4194
     24 F         143.9263  130.9962  156.9077 F       1  UNL1       -0.1658
     25 F         145.0103  132.3869  155.7281 F       1  UNL1       -0.1658
     26 F         142.2353  132.2761  156.8628 F       1  UNL1       -0.1658
     27 O         139.9819  142.1887  164.7087 O.3     1  UNL1       -0.4534
     28 C         139.4997  140.2057  168.1124 C.ar    1  UNL1        0.1375
     29 C         139.9756  141.2270  167.1222 C.ar    1  UNL1        0.0612
     30 C         139.5060  141.1674  165.6989 C.ar    1  UNL1        0.1485
     31 C         138.5604  140.0865  165.2658 C.ar    1  UNL1        0.0582
     32 C         138.0845  139.0653  166.2560 C.ar    1  UNL1        0.1021
     33 N         138.5541  139.1249  167.6793 N.ar    1  UNL1       -0.2391
     34 C         141.7765  140.9219  171.2832 C.3     1  UNL1        0.1110
     35 N         141.3068  140.8623  169.8598 N.am    1  UNL1       -0.2979
     36 C         139.9694  140.2654  169.5358 C.2     1  UNL1        0.2637
     37 O         139.1016  139.7281  170.6350 O.2     1  UNL1       -0.2685
     38 H         141.8763  141.2149  169.1383 H       1  UNL1        0.1498
@<TRIPOS>BOND
     1    34    35    1
     2    35    36   am
     3    36    37    2
     4    36    28    1
     5    28    29   ar
     6    29    30   ar
     7    30    27    1
     8    27     1    1
     9     1     2   ar
    10     2     3   ar
    11     3     4   ar
    12     4     5   ar
    13     5     6   ar
    14     6    10    1
    15    10    11   am
    16    11    12    2
    17    11    13   am
    18    13    16    1
    19    16    17   ar
    20    17    18   ar
    21    18    19   ar
    22    19    20    1
    23    19    21   ar
    24    21    23    1
    25    23    24    1
    26    23    25    1
    27    23    26    1
    28    21    22   ar
    29     6     7   ar
    30     7     8   ar
    31     8     9   ar
    32    30    31   ar
    33    31    32   ar
    34    32    33   ar
    35    33    28   ar
    36     9     1   ar
    37     8     4   ar
    38    22    16   ar
    39    35    38    1
    40    10    14    1
    41    13    15    1
@<TRIPOS>MOLECULE
*****
 38 41 0 0 0
SMALL
GASTEIGER

@<TRIPOS>ATOM
      1 C         142.7355  136.4017  155.2214 C.ar    1  UNL1        0.1459
      2 C         143.7546  137.4987  155.3108 C.ar    1  UNL1        0.0391
      3 C         143.5062  138.6826  156.1975 C.ar    1  UNL1        0.0228
      4 C         142.2387  138.7697  156.9949 C.ar    1  UNL1        0.0894
      5 N         141.7212  139.8067  157.9474 N.ar    1  UNL1       -0.2239
      6 C         140.3823  139.3506  158.4466 C.ar    1  UNL1        0.1667
      7 S         140.0723  138.0317  157.8027 S.2     1  UNL1       -0.0512
      8 C         141.2195  137.6727  156.9055 C.ar    1  UNL1        0.0528
      9 C         141.4679  136.4887  156.0188 C.ar    1  UNL1        0.0456
     10 N         139.5071  140.0844  159.4190 N.am    1  UNL1       -0.2482
     11 C         139.7144  139.9098  160.8943 C.2     1  UNL1        0.3096
     12 O         140.7969  139.0013  161.3972 O.2     1  UNL1       -0.2521
     13 N         138.8392  140.6436  161.8666 N.am    1  UNL1       -0.2680
     14 H         138.7966  140.6807  159.0889 H       1  UNL1        0.1583
     15 H         138.1287  141.2398  161.5366 H       1  UNL1        0.1564
     16 C         139.0464  140.4689  163.3419 C.ar    1  UNL1        0.0516
     17 C         139.8245  141.4912  164.1162 C.ar    1  UNL1        0.0156
     18 C         140.0318  141.3166  165.5915 C.ar    1  UNL1        0.0126
     19 C         139.4610  140.1196  166.2926 C.ar    1  UNL1        0.0616
     20 CL        139.6683  139.9450  167.7679 Cl      1  UNL1       -0.0823
     21 C         138.6830  139.0973  165.5183 C.ar    1  UNL1        0.0832
     22 C         138.4757  139.2720  164.0430 C.ar    1  UNL1        0.0194
     23 C         138.1121  137.9003  166.2194 C.3     1  UNL1        0.4194
     24 F         137.5414  136.7033  166.9203 F       1  UNL1       -0.1658
     25 F         137.1718  138.7915  166.9755 F       1  UNL1       -0.1658
     26 F         139.0524  137.0092  165.4633 F       1  UNL1       -0.1658
     27 O         142.9838  135.2176  154.3346 O.3     1  UNL1       -0.4534
     28 C         143.0645  131.8112  156.3692 C.ar    1  UNL1        0.1375
     29 C         143.4227  133.1895  155.8979 C.ar    1  UNL1        0.0612
     30 C         142.6257  133.8394  154.8059 C.ar    1  UNL1        0.1485
     31 C         141.4706  133.1110  154.1852 C.ar    1  UNL1        0.0582
     32 C         141.1125  131.7327  154.6565 C.ar    1  UNL1        0.1021
     33 N         141.9095  131.0828  155.7485 N.ar    1  UNL1       -0.2391
     34 C         144.2677  129.1553  159.0616 C.3     1  UNL1        0.1110
     35 N         143.4707  129.8052  157.9696 N.am    1  UNL1       -0.2979
     36 C         143.8615  131.1613  157.4613 C.2     1  UNL1        0.2637
     37 O         145.0491  131.8675  158.0450 O.2     1  UNL1       -0.2685
     38 H         142.6912  129.3417  157.5864 H       1  UNL1        0.1498
@<TRIPOS>BOND
     1    34    35    1
     2    35    36   am
     3    36    37    2
     4    36    28    1
     5    28    29   ar
     6    29    30   ar
     7    30    27    1
     8    27     1    1
     9     1     2   ar
    10     2     3   ar
    11     3     4   ar
    12     4     5   ar
    13     5     6   ar
    14     6    10    1
    15    10    11   am
    16    11    12    2
    17    11    13   am
    18    13    16    1
    19    16    17   ar
    20    17    18   ar
    21    18    19   ar
    22    19    20    1
    23    19    21   ar
    24    21    23    1
    25    23    24    1
    26    23    25    1
    27    23    26    1
    28    21    22   ar
    29     6     7   ar
    30     7     8   ar
    31     8     9   ar
    32    30    31   ar
    33    31    32   ar
    34    32    33   ar
    35    33    28   ar
    36     9     1   ar
    37     8     4   ar
    38    22    16   ar
    39    35    38    1
    40    10    14    1
    41    13    15    1
@<TRIPOS>MOLECULE
*****
 38 41 0 0 0
SMALL
GASTEIGER

@<TRIPOS>ATOM
      1 C         143.1003  138.4102  157.4590 C.ar    1  UNL1        0.1459
      2 C         143.3308  139.8889  157.3579 C.ar    1  UNL1        0.0391
      3 C         142.7185  140.8141  158.3673 C.ar    1  UNL1        0.0228
      4 C         141.8758  140.2607  159.4779 C.ar    1  UNL1        0.0894
      5 N         141.1481  140.9218  160.6109 N.ar    1  UNL1       -0.2239
      6 C         140.4679  139.8517  161.4121 C.ar    1  UNL1        0.1667
      7 S         140.7752  138.5292  160.7745 S.2     1  UNL1       -0.0512
      8 C         141.6453  138.7820  159.5791 C.ar    1  UNL1        0.0528
      9 C         142.2576  137.8567  158.5696 C.ar    1  UNL1        0.0456
     10 N         139.6278  140.0663  162.6362 N.am    1  UNL1       -0.2482
     11 C         140.2778  140.4352  163.9367 C.2     1  UNL1        0.3096
     12 O         141.7680  140.5895  164.0131 O.2     1  UNL1       -0.2521
     13 N         139.4378  140.6498  165.1607 N.am    1  UNL1       -0.2680
     14 H         138.6498  139.9650  162.5860 H       1  UNL1        0.1583
     15 H         138.4599  140.5485  165.1106 H       1  UNL1        0.1564
     16 C         140.0879  141.0188  166.4612 C.ar    1  UNL1        0.0516
     17 C         140.1156  142.4510  166.9061 C.ar    1  UNL1        0.0156
     18 C         140.7657  142.8199  168.2066 C.ar    1  UNL1        0.0126
     19 C         141.3880  141.7566  169.0623 C.ar    1  UNL1        0.0616
     20 CL        142.0381  142.1256  170.3628 Cl      1  UNL1       -0.0823
     21 C         141.3603  140.3244  168.6174 C.ar    1  UNL1        0.0832
     22 C         140.7102  139.9555  167.3169 C.ar    1  UNL1        0.0194
     23 C         141.9826  139.2611  169.4730 C.3     1  UNL1        0.4194
     24 F         142.6049  138.1978  170.3286 F       1  UNL1       -0.1658
     25 F         143.1562  139.1979  168.5409 F       1  UNL1       -0.1658
     26 F         140.8091  139.3243  170.4050 F       1  UNL1       -0.1658
     27 O         143.7126  137.4849  156.4495 O.3     1  UNL1       -0.4534
     28 C         143.1329  133.5635  156.2585 C.ar    1  UNL1        0.1375
     29 C         143.7729  134.8894  156.5459 C.ar    1  UNL1        0.0612
     30 C         143.0726  136.1591  156.1621 C.ar    1  UNL1        0.1485
     31 C         141.7322  136.1030  155.4910 C.ar    1  UNL1        0.0582
     32 C         141.0923  134.7772  155.2037 C.ar    1  UNL1        0.1021
     33 N         141.7926  133.5074  155.5874 N.ar    1  UNL1       -0.2391
     34 C         143.8708  130.0544  157.9591 C.3     1  UNL1        0.1110
     35 N         143.1704  131.3242  157.5754 N.am    1  UNL1       -0.2979
     36 C         143.8332  132.2937  156.6422 C.2     1  UNL1        0.2637
     37 O         145.1963  131.9935  156.0928 O.2     1  UNL1       -0.2685
     38 H         142.2758  131.5212  157.9360 H       1  UNL1        0.1498
@<TRIPOS>BOND
     1    34    35    1
     2    35    36   am
     3    36    37    2
     4    36    28    1
     5    28    29   ar
     6    29    30   ar
     7    30    27    1
     8    27     1    1
     9     1     2   ar
    10     2     3   ar
    11     3     4   ar
    12     4     5   ar
    13     5     6   ar
    14     6    10    1
    15    10    11   am
    16    11    12    2
    17    11    13   am
    18    13    16    1
    19    16    17   ar
    20    17    18   ar
    21    18    19   ar
    22    19    20    1
    23    19    21   ar
    24    21    23    1
    25    23    24    1
    26    23    25    1
    27    23    26    1
    28    21    22   ar
    29     6     7   ar
    30     7     8   ar
    31     8     9   ar
    32    30    31   ar
    33    31    32   ar
    34    32    33   ar
    35    33    28   ar
    36     9     1   ar
    37     8     4   ar
    38    22    16   ar
    39    35    38    1
    40    10    14    1
    41    13    15    1
@<TRIPOS>MOLECULE
*****
 38 41 0 0 0
SMALL
GASTEIGER

@<TRIPOS>ATOM
      1 C         139.5941  139.1645  157.1553 C.ar    1  UNL1        0.1459
      2 C         138.5681  140.2525  157.2714 C.ar    1  UNL1        0.0391
      3 C         137.9711  140.5808  158.6077 C.ar    1  UNL1        0.0228
      4 C         138.4001  139.8212  159.8279 C.ar    1  UNL1        0.0894
      5 N         137.9908  139.9206  161.2676 N.ar    1  UNL1       -0.2239
      6 C         138.7638  138.8940  162.0412 C.ar    1  UNL1        0.1667
      7 S         139.6509  138.1601  161.0797 S.2     1  UNL1       -0.0512
      8 C         139.4261  138.7332  159.7118 C.ar    1  UNL1        0.0528
      9 C         140.0231  138.4048  158.3755 C.ar    1  UNL1        0.0456
     10 N         138.6668  138.6450  163.5173 N.am    1  UNL1       -0.2482
     11 C         139.5808  139.3682  164.4615 C.2     1  UNL1        0.3096
     12 O         140.5918  140.3404  163.9297 O.2     1  UNL1       -0.2521
     13 N         139.4839  139.1192  165.9375 N.am    1  UNL1       -0.2680
     14 H         138.0033  138.0069  163.8663 H       1  UNL1        0.1583
     15 H         138.8203  138.4811  166.2865 H       1  UNL1        0.1564
     16 C         140.3979  139.8424  166.8817 C.ar    1  UNL1        0.0516
     17 C         141.8727  139.5704  166.8539 C.ar    1  UNL1        0.0156
     18 C         142.7867  140.2936  167.7982 C.ar    1  UNL1        0.0126
     19 C         142.2258  141.2888  168.7702 C.ar    1  UNL1        0.0616
     20 CL        143.1398  142.0120  169.7145 Cl      1  UNL1       -0.0823
     21 C         140.7510  141.5608  168.7980 C.ar    1  UNL1        0.0832
     22 C         139.8370  140.8376  167.8538 C.ar    1  UNL1        0.0194
     23 C         140.1901  142.5561  169.7701 C.3     1  UNL1        0.4194
     24 F         139.6292  143.5512  170.7422 F       1  UNL1       -0.1658
     25 F         140.2869  143.6296  168.7269 F       1  UNL1       -0.1658
     26 F         140.0933  141.4825  170.8133 F       1  UNL1       -0.1658
     27 O         140.1912  138.8361  155.8190 O.3     1  UNL1       -0.4534
     28 C         143.2111  136.2730  155.5723 C.ar    1  UNL1        0.1375
     29 C         141.8146  136.8142  155.6573 C.ar    1  UNL1        0.0612
     30 C         141.5875  138.2949  155.7339 C.ar    1  UNL1        0.1485
     31 C         142.7569  139.2344  155.7256 C.ar    1  UNL1        0.0582
     32 C         144.1532  138.6933  155.6406 C.ar    1  UNL1        0.1021
     33 N         144.3803  137.2125  155.5639 N.ar    1  UNL1       -0.2391
     34 C         144.4564  132.6178  156.4880 C.3     1  UNL1        0.1110
     35 N         144.2293  134.0985  156.5647 N.am    1  UNL1       -0.2979
     36 C         143.4382  134.7923  155.4956 C.2     1  UNL1        0.2637
     37 O         142.8743  134.0053  154.3499 O.2     1  UNL1       -0.2685
     38 H         144.5994  134.6150  157.3167 H       1  UNL1        0.1498
@<TRIPOS>BOND
     1    34    35    1
     2    35    36   am
     3    36    37    2
     4    36    28    1
     5    28    29   ar
     6    29    30   ar
     7    30    27    1
     8    27     1    1
     9     1     2   ar
    10     2     3   ar
    11     3     4   ar
    12     4     5   ar
    13     5     6   ar
    14     6    10    1
    15    10    11   am
    16    11    12    2
    17    11    13   am
    18    13    16    1
    19    16    17   ar
    20    17    18   ar
    21    18    19   ar
    22    19    20    1
    23    19    21   ar
    24    21    23    1
    25    23    24    1
    26    23    25    1
    27    23    26    1
    28    21    22   ar
    29     6     7   ar
    30     7     8   ar
    31     8     9   ar
    32    30    31   ar
    33    31    32   ar
    34    32    33   ar
    35    33    28   ar
    36     9     1   ar
    37     8     4   ar
    38    22    16   ar
    39    35    38    1
    40    10    14    1
    41    13    15    1
@<TRIPOS>MOLECULE
*****
 38 41 0 0 0
SMALL
GASTEIGER

@<TRIPOS>ATOM
      1 C         138.5992  142.3390  160.0200 C.ar    1  UNL1        0.1459
      2 C         138.4178  142.8166  158.6097 C.ar    1  UNL1        0.0391
      3 C         139.2757  142.2592  157.5129 C.ar    1  UNL1        0.0228
      4 C         140.3151  141.2241  157.8263 C.ar    1  UNL1        0.0894
      5 N         141.3009  140.4972  156.9602 N.ar    1  UNL1       -0.2239
      6 C         142.0916  139.5704  157.8353 C.ar    1  UNL1        0.1667
      7 S         141.5945  139.7244  159.2422 S.2     1  UNL1       -0.0512
      8 C         140.4966  140.7464  159.2366 C.ar    1  UNL1        0.0528
      9 C         139.6386  141.3039  160.3334 C.ar    1  UNL1        0.0456
     10 N         143.1871  138.6509  157.3830 N.am    1  UNL1       -0.2482
     11 C         142.8485  137.3117  156.7981 C.2     1  UNL1        0.3096
     12 O         141.4145  136.8921  156.6655 O.2     1  UNL1       -0.2521
     13 N         143.9439  136.3922  156.3458 N.am    1  UNL1       -0.2680
     14 H         144.1282  138.9263  157.4700 H       1  UNL1        0.1583
     15 H         144.8851  136.6677  156.4329 H       1  UNL1        0.1564
     16 C         143.6054  135.0531  155.7609 C.ar    1  UNL1        0.0516
     17 C         142.8662  134.9688  154.4584 C.ar    1  UNL1        0.0156
     18 C         142.5277  133.6296  153.8736 C.ar    1  UNL1        0.0126
     19 C         142.9283  132.3748  154.5912 C.ar    1  UNL1        0.0616
     20 CL        142.5897  131.0357  154.0063 Cl      1  UNL1       -0.0823
     21 C         143.6674  132.4592  155.8937 C.ar    1  UNL1        0.0832
     22 C         144.0059  133.7983  156.4785 C.ar    1  UNL1        0.0194
     23 C         144.0680  131.2043  156.6113 C.3     1  UNL1        0.4194
     24 F         144.4686  129.9496  157.3290 F       1  UNL1       -0.1658
     25 F         142.7910  131.2462  157.3973 F       1  UNL1       -0.1658
     26 F         145.3448  131.1625  155.8254 F       1  UNL1       -0.1658
     27 O         137.7412  142.8964  161.1169 O.3     1  UNL1       -0.4534
     28 C         138.9018  142.1062  164.8289 C.ar    1  UNL1        0.1375
     29 C         138.3348  141.9245  163.4520 C.ar    1  UNL1        0.0612
     30 C         138.3082  143.0781  162.4937 C.ar    1  UNL1        0.1485
     31 C         138.8485  144.4134  162.9121 C.ar    1  UNL1        0.0582
     32 C         139.4155  144.5951  164.2889 C.ar    1  UNL1        0.1021
     33 N         139.4421  143.4415  165.2472 N.ar    1  UNL1       -0.2391
     34 C         137.9640  138.6821  166.6027 C.3     1  UNL1        0.1110
     35 N         137.9373  139.8358  165.6443 N.am    1  UNL1       -0.2979
     36 C         138.9285  140.9526  165.7872 C.2     1  UNL1        0.2637
     37 O         139.9463  140.9158  166.8885 O.2     1  UNL1       -0.2685
     38 H         137.2693  139.8599  164.9215 H       1  UNL1        0.1498
@<TRIPOS>BOND
     1    34    35    1
     2    35    36   am
     3    36    37    2
     4    36    28    1
     5    28    29   ar
     6    29    30   ar
     7    30    27    1
     8    27     1    1
     9     1     2   ar
    10     2     3   ar
    11     3     4   ar
    12     4     5   ar
    13     5     6   ar
    14     6    10    1
    15    10    11   am
    16    11    12    2
    17    11    13   am
    18    13    16    1
    19    16    17   ar
    20    17    18   ar
    21    18    19   ar
    22    19    20    1
    23    19    21   ar
    24    21    23    1
    25    23    24    1
    26    23    25    1
    27    23    26    1
    28    21    22   ar
    29     6     7   ar
    30     7     8   ar
    31     8     9   ar
    32    30    31   ar
    33    31    32   ar
    34    32    33   ar
    35    33    28   ar
    36     9     1   ar
    37     8     4   ar
    38    22    16   ar
    39    35    38    1
    40    10    14    1
    41    13    15    1
@<TRIPOS>MOLECULE
*****
 38 41 0 0 0
SMALL
GASTEIGER

@<TRIPOS>ATOM
      1 C         142.4720  138.1185  157.5821 C.ar    1  UNL1        0.1459
      2 C         141.0331  137.7567  157.3611 C.ar    1  UNL1        0.0391
      3 C         139.9680  138.3495  158.2352 C.ar    1  UNL1        0.0228
      4 C         140.3417  139.3039  159.3303 C.ar    1  UNL1        0.0894
      5 N         139.5173  140.0417  160.3434 N.ar    1  UNL1       -0.2239
      6 C         140.4468  140.8594  161.1905 C.ar    1  UNL1        0.1667
      7 S         141.8455  140.6270  160.7010 S.2     1  UNL1       -0.0512
      8 C         141.7806  139.6657  159.5514 C.ar    1  UNL1        0.0528
      9 C         142.8457  139.0729  158.6772 C.ar    1  UNL1        0.0456
     10 N         140.0476  141.7527  162.3275 N.am    1  UNL1       -0.2482
     11 C         140.2342  141.2936  163.7432 C.2     1  UNL1        0.3096
     12 O         140.8201  139.9411  164.0219 O.2     1  UNL1       -0.2521
     13 N         139.8351  142.1868  164.8802 N.am    1  UNL1       -0.2680
     14 H         139.6631  142.6404  162.1445 H       1  UNL1        0.1583
     15 H         139.4506  143.0744  164.6972 H       1  UNL1        0.1564
     16 C         140.0217  141.7276  166.2959 C.ar    1  UNL1        0.0516
     17 C         139.3489  140.4748  166.7729 C.ar    1  UNL1        0.0156
     18 C         139.5355  140.0156  168.1887 C.ar    1  UNL1        0.0126
     19 C         140.3950  140.8093  169.1274 C.ar    1  UNL1        0.0616
     20 CL        140.5817  140.3501  170.5431 Cl      1  UNL1       -0.0823
     21 C         141.0679  142.0621  168.6504 C.ar    1  UNL1        0.0832
     22 C         140.8812  142.5213  167.2346 C.ar    1  UNL1        0.0194
     23 C         141.9275  142.8558  169.5891 C.3     1  UNL1        0.4194
     24 F         142.7870  143.6496  170.5278 F       1  UNL1       -0.1658
     25 F         143.0835  141.9442  169.3015 F       1  UNL1       -0.1658
     26 F         140.7715  143.7674  169.8767 F       1  UNL1       -0.1658
     27 O         143.5372  137.5257  156.7080 O.3     1  UNL1       -0.4534
     28 C         143.1838  133.7566  155.5166 C.ar    1  UNL1        0.1375
     29 C         143.4931  134.9499  156.3713 C.ar    1  UNL1        0.0612
     30 C         143.2280  136.3324  155.8533 C.ar    1  UNL1        0.1485
     31 C         142.6537  136.5217  154.4805 C.ar    1  UNL1        0.0582
     32 C         142.3445  135.3284  153.6259 C.ar    1  UNL1        0.1021
     33 N         142.6095  133.9459  154.1439 N.ar    1  UNL1       -0.2391
     34 C         144.7432  130.1261  155.8878 C.3     1  UNL1        0.1110
     35 N         144.4781  131.5086  155.3698 N.am    1  UNL1       -0.2979
     36 C         143.4489  132.3741  156.0346 C.2     1  UNL1        0.2637
     37 O         142.6849  131.8570  157.2173 O.2     1  UNL1       -0.2685
     38 H         144.9795  131.8480  154.5935 H       1  UNL1        0.1498
@<TRIPOS>BOND
     1    34    35    1
     2    35    36   am
     3    36    37    2
     4    36    28    1
     5    28    29   ar
     6    29    30   ar
     7    30    27    1
     8    27     1    1
     9     1     2   ar
    10     2     3   ar
    11     3     4   ar
    12     4     5   ar
    13     5     6   ar
    14     6    10    1
    15    10    11   am
    16    11    12    2
    17    11    13   am
    18    13    16    1
    19    16    17   ar
    20    17    18   ar
    21    18    19   ar
    22    19    20    1
    23    19    21   ar
    24    21    23    1
    25    23    24    1
    26    23    25    1
    27    23    26    1
    28    21    22   ar
    29     6     7   ar
    30     7     8   ar
    31     8     9   ar
    32    30    31   ar
    33    31    32   ar
    34    32    33   ar
    35    33    28   ar
    36     9     1   ar
    37     8     4   ar
    38    22    16   ar
    39    35    38    1
    40    10    14    1
    41    13    15    1
@<TRIPOS>MOLECULE
*****
 38 41 0 0 0
SMALL
GASTEIGER

@<TRIPOS>ATOM
      1 C         138.6887  138.9929  156.0610 C.ar    1  UNL1        0.1459
      2 C         138.4767  138.3900  154.7040 C.ar    1  UNL1        0.0391
      3 C         139.4429  137.3710  154.1768 C.ar    1  UNL1        0.0228
      4 C         140.6212  136.9549  155.0066 C.ar    1  UNL1        0.0894
      5 N         141.7332  135.9805  154.7533 N.ar    1  UNL1       -0.2239
      6 C         142.6325  135.9812  155.9538 C.ar    1  UNL1        0.1667
      7 S         142.0762  136.9560  156.9490 S.2     1  UNL1       -0.0512
      8 C         140.8332  137.5578  156.3636 C.ar    1  UNL1        0.0528
      9 C         139.8670  138.5768  156.8908 C.ar    1  UNL1        0.0456
     10 N         143.8706  135.1526  156.1285 N.am    1  UNL1       -0.2482
     11 C         143.7599  133.6680  156.3115 C.2     1  UNL1        0.3096
     12 O         142.4109  133.0119  156.3198 O.2     1  UNL1       -0.2521
     13 N         144.9979  132.8394  156.4862 N.am    1  UNL1       -0.2680
     14 H         144.7560  135.5833  156.1231 H       1  UNL1        0.1583
     15 H         145.8833  133.2700  156.4808 H       1  UNL1        0.1564
     16 C         144.8872  131.3547  156.6692 C.ar    1  UNL1        0.0516
     17 C         144.8813  130.4499  155.4728 C.ar    1  UNL1        0.0156
     18 C         144.7705  128.9653  155.6558 C.ar    1  UNL1        0.0126
     19 C         144.6656  128.3854  157.0352 C.ar    1  UNL1        0.0616
     20 CL        144.5548  126.9007  157.2182 Cl      1  UNL1       -0.0823
     21 C         144.6715  129.2901  158.2316 C.ar    1  UNL1        0.0832
     22 C         144.7823  130.7748  158.0486 C.ar    1  UNL1        0.0194
     23 C         144.5667  128.7102  159.6110 C.3     1  UNL1        0.4194
     24 F         144.4618  128.1304  160.9904 F       1  UNL1       -0.1658
     25 F         143.0731  128.8363  159.5504 F       1  UNL1       -0.1658
     26 F         146.0601  128.5843  159.6715 F       1  UNL1       -0.1658
     27 O         137.7225  140.0119  156.5883 O.3     1  UNL1       -0.4534
     28 C         138.6793  142.4977  159.5303 C.ar    1  UNL1        0.1375
     29 C         138.1709  141.2852  158.8081 C.ar    1  UNL1        0.0612
     30 C         138.2309  141.2243  157.3106 C.ar    1  UNL1        0.1485
     31 C         138.7994  142.3758  156.5352 C.ar    1  UNL1        0.0582
     32 C         139.3078  143.5881  157.2575 C.ar    1  UNL1        0.1021
     33 N         139.2478  143.6491  158.7550 N.ar    1  UNL1       -0.2391
     34 C         137.7354  143.6758  163.2007 C.3     1  UNL1        0.1110
     35 N         137.7954  143.6148  161.7031 N.am    1  UNL1       -0.2979
     36 C         138.6193  142.5587  161.0279 C.2     1  UNL1        0.2637
     37 O         139.3832  141.5636  161.8502 O.2     1  UNL1       -0.2685
     38 H         137.2941  144.2679  161.1634 H       1  UNL1        0.1498
@<TRIPOS>BOND
     1    34    35    1
     2    35    36   am
     3    36    37    2
     4    36    28    1
     5    28    29   ar
     6    29    30   ar
     7    30    27    1
     8    27     1    1
     9     1     2   ar
    10     2     3   ar
    11     3     4   ar
    12     4     5   ar
    13     5     6   ar
    14     6    10    1
    15    10    11   am
    16    11    12    2
    17    11    13   am
    18    13    16    1
    19    16    17   ar
    20    17    18   ar
    21    18    19   ar
    22    19    20    1
    23    19    21   ar
    24    21    23    1
    25    23    24    1
    26    23    25    1
    27    23    26    1
    28    21    22   ar
    29     6     7   ar
    30     7     8   ar
    31     8     9   ar
    32    30    31   ar
    33    31    32   ar
    34    32    33   ar
    35    33    28   ar
    36     9     1   ar
    37     8     4   ar
    38    22    16   ar
    39    35    38    1
    40    10    14    1
    41    13    15    1
