@<TRIPOS>MOLECULE
*****
 33 37 0 0 0
SMALL
GASTEIGER

@<TRIPOS>ATOM
      1 N         142.8014  138.9326  163.3607 N.3     1  UNL1       -0.2726
      2 C         143.9880  139.2295  162.4925 C.3     1  UNL1        0.0721
      3 C         144.6493  140.4685  163.0194 C.3     1  UNL1        0.0190
      4 C         143.8714  140.9373  164.2131 C.3     1  UNL1        0.0201
      5 C         144.7330  142.1305  164.5031 C.3     1  UNL1        0.0061
      6 C         143.5463  141.8335  165.3713 C.3     1  UNL1        0.0237
      7 C         142.7293  139.9881  164.4241 C.3     1  UNL1        0.0724
      8 C         142.6736  142.1795  166.5411 C.ar    1  UNL1       -0.0225
      9 C         141.2332  142.5369  166.3225 C.ar    1  UNL1       -0.0043
     10 C         140.3605  142.8828  167.4924 C.ar    1  UNL1        0.0035
     11 C         140.9280  142.8714  168.8808 C.ar    1  UNL1        0.0714
     12 C         142.3684  142.5140  169.0994 C.ar    1  UNL1        0.0035
     13 C         143.2411  142.1681  167.9295 C.ar    1  UNL1       -0.0043
     14 C         140.0553  143.2173  170.0507 C.3     1  UNL1        0.4186
     15 F         139.1825  143.5633  171.2206 F       1  UNL1       -0.1659
     16 F         139.4791  141.8326  170.0303 F       1  UNL1       -0.1659
     17 F         140.6314  144.6021  170.0710 F       1  UNL1       -0.1659
     18 C         141.8533  137.7822  163.1946 C.3     1  UNL1        0.0730
     19 C         140.5364  137.7858  163.9129 C.3     1  UNL1        0.0294
     20 C         139.2588  137.6552  163.1378 C.3     1  UNL1        0.0666
     21 S         139.0347  138.4938  161.9145 S.3     1  UNL1       -0.0756
     22 C         138.7573  142.3648  161.9783 C.ar    1  UNL1        0.2029
     23 N         137.4334  141.9697  162.5625 N.ar    1  UNL1       -0.1250
     24 N         137.3762  140.4715  162.6097 N.ar    1  UNL1       -0.1220
     25 C         138.6647  139.9407  162.0547 C.ar    1  UNL1        0.1933
     26 N         139.5183  141.1108  161.6645 N.ar    1  UNL1       -0.2860
     27 C         140.8917  141.0395  161.0657 C.3     1  UNL1        0.1341
     28 C         139.0381  144.6922  164.2486 C.3     1  UNL1        0.0556
     29 C         139.3652  144.8374  162.7919 C.ar    1  UNL1        0.1001
     30 N         139.8788  146.0779  162.1230 N.ar    1  UNL1       -0.2085
     31 C         140.0671  145.7748  160.6661 C.ar    1  UNL1        0.2849
     32 O         139.6699  144.3470  160.4345 O.2     1  UNL1       -0.4283
     33 C         139.2361  143.7677  161.7484 C.ar    1  UNL1        0.1964
@<TRIPOS>BOND
     1    28    29    1
     2    29    30   ar
     3    30    31   ar
     4    31    32   ar
     5    32    33   ar
     6    33    22    1
     7    22    23   ar
     8    23    24   ar
     9    24    25   ar
    10    25    21    1
    11    21    20    1
    12    20    19    1
    13    19    18    1
    14    18     1    1
    15     1     2    1
    16     2     3    1
    17     4     3    1
    18     4     5    1
    19     5     6    1
    20     6     8    1
    21     8     9   ar
    22     9    10   ar
    23    10    11   ar
    24    11    14    1
    25    14    15    1
    26    14    16    1
    27    14    17    1
    28    11    12   ar
    29    12    13   ar
    30     4     7    1
    31    25    26   ar
    32    26    27    1
    33    33    29   ar
    34    26    22   ar
    35     7     1    1
    36     6     4    1
    37    13     8   ar
@<TRIPOS>MOLECULE
*****
 33 37 0 0 0
SMALL
GASTEIGER

@<TRIPOS>ATOM
      1 N         143.9162  143.1756  163.5996 N.3     1  UNL1       -0.2726
      2 C         143.8149  144.6522  163.3559 C.3     1  UNL1        0.0721
      3 C         142.4299  145.0897  163.7304 C.3     1  UNL1        0.0190
      4 C         141.6752  143.8836  164.2055 C.3     1  UNL1        0.0201
      5 C         140.3919  144.6049  164.4933 C.3     1  UNL1        0.0061
      6 C         140.4932  143.1283  164.7369 C.3     1  UNL1        0.0237
      7 C         142.5939  142.7006  164.1247 C.3     1  UNL1        0.0724
      8 C         139.8693  141.8397  165.1844 C.ar    1  UNL1       -0.0225
      9 C         139.9838  141.4085  166.6165 C.ar    1  UNL1       -0.0043
     10 C         139.3599  140.1199  167.0640 C.ar    1  UNL1        0.0035
     11 C         138.6215  139.2625  166.0793 C.ar    1  UNL1        0.0714
     12 C         138.5071  139.6936  164.6471 C.ar    1  UNL1        0.0035
     13 C         139.1310  140.9822  164.1997 C.ar    1  UNL1       -0.0043
     14 C         137.9976  137.9739  166.5267 C.3     1  UNL1        0.4186
     15 F         137.3737  136.6852  166.9742 F       1  UNL1       -0.1659
     16 F         137.3144  138.6950  167.6506 F       1  UNL1       -0.1659
     17 F         138.6809  137.2528  165.4028 F       1  UNL1       -0.1659
     18 C         145.1273  142.3235  163.3602 C.3     1  UNL1        0.0730
     19 C         145.2565  140.9947  164.0440 C.3     1  UNL1        0.0294
     20 C         144.6963  139.7617  163.3990 C.3     1  UNL1        0.0666
     21 S         143.4835  139.0967  163.9794 S.3     1  UNL1       -0.0756
     22 C         140.7764  138.6328  161.2367 C.ar    1  UNL1        0.2029
     23 N         140.4262  137.5210  162.1808 N.ar    1  UNL1       -0.1250
     24 N         141.3976  137.5595  163.3231 N.ar    1  UNL1       -0.1220
     25 C         142.3483  138.6951  163.0850 C.ar    1  UNL1        0.1933
     26 N         141.9644  139.3584  161.7956 N.ar    1  UNL1       -0.2860
     27 C         142.6484  140.5399  161.1742 C.3     1  UNL1        0.1341
     28 C         137.7514  139.8297  160.9797 C.3     1  UNL1        0.0556
     29 C         138.6734  139.5115  159.8402 C.ar    1  UNL1        0.1001
     30 N         138.3670  139.6875  158.3824 N.ar    1  UNL1       -0.2085
     31 C         139.5680  139.2462  157.5996 C.ar    1  UNL1        0.2849
     32 O         140.6168  138.7974  158.5736 O.2     1  UNL1       -0.4283
     33 C         140.0639  138.9613  159.9583 C.ar    1  UNL1        0.1964
@<TRIPOS>BOND
     1    28    29    1
     2    29    30   ar
     3    30    31   ar
     4    31    32   ar
     5    32    33   ar
     6    33    22    1
     7    22    23   ar
     8    23    24   ar
     9    24    25   ar
    10    25    21    1
    11    21    20    1
    12    20    19    1
    13    19    18    1
    14    18     1    1
    15     1     2    1
    16     2     3    1
    17     4     3    1
    18     4     5    1
    19     5     6    1
    20     6     8    1
    21     8     9   ar
    22     9    10   ar
    23    10    11   ar
    24    11    14    1
    25    14    15    1
    26    14    16    1
    27    14    17    1
    28    11    12   ar
    29    12    13   ar
    30     4     7    1
    31    25    26   ar
    32    26    27    1
    33    33    29   ar
    34    26    22   ar
    35     7     1    1
    36     6     4    1
    37    13     8   ar
@<TRIPOS>MOLECULE
*****
 33 37 0 0 0
SMALL
GASTEIGER

@<TRIPOS>ATOM
      1 N         138.1040  140.2385  163.0519 N.3     1  UNL1       -0.2726
      2 C         138.0613  138.8819  162.4134 C.3     1  UNL1        0.0721
      3 C         138.9921  137.9830  163.1722 C.3     1  UNL1        0.0190
      4 C         139.6099  138.7841  164.2797 C.3     1  UNL1        0.0201
      5 C         140.4481  137.6690  164.8310 C.3     1  UNL1        0.0061
      6 C         140.4908  139.0257  165.4696 C.3     1  UNL1        0.0237
      7 C         139.0611  140.1781  164.2053 C.3     1  UNL1        0.0724
      8 C         141.0239  139.9484  166.5252 C.ar    1  UNL1       -0.0225
      9 C         142.4510  140.4070  166.4692 C.ar    1  UNL1       -0.0043
     10 C         142.9842  141.3297  167.5248 C.ar    1  UNL1        0.0035
     11 C         142.0903  141.7938  168.6364 C.ar    1  UNL1        0.0714
     12 C         140.6632  141.3351  168.6923 C.ar    1  UNL1        0.0035
     13 C         140.1300  140.4124  167.6367 C.ar    1  UNL1       -0.0043
     14 C         142.6234  142.7165  169.6920 C.3     1  UNL1        0.4186
     15 F         143.1567  143.6392  170.7476 F       1  UNL1       -0.1659
     16 F         141.3038  143.4282  169.7363 F       1  UNL1       -0.1659
     17 F         143.9431  142.0047  169.6476 F       1  UNL1       -0.1659
     18 C         137.3262  141.4440  162.6139 C.3     1  UNL1        0.0730
     19 C         138.0466  142.6570  162.1044 C.3     1  UNL1        0.0294
     20 C         137.8317  143.9882  162.7615 C.3     1  UNL1        0.0666
     21 S         138.9502  144.9860  162.8178 S.3     1  UNL1       -0.0756
     22 C         142.5372  143.5202  162.5935 C.ar    1  UNL1        0.2029
     23 N         142.4669  144.3105  161.3206 N.ar    1  UNL1       -0.1250
     24 N         141.1146  144.9559  161.2497 N.ar    1  UNL1       -0.1220
     25 C         140.3492  144.5643  162.4788 C.ar    1  UNL1        0.1933
     26 N         141.2283  143.6770  163.3094 N.ar    1  UNL1       -0.2860
     27 C         140.8628  143.0557  164.6248 C.3     1  UNL1        0.1341
     28 C         144.3621  144.1532  165.2238 C.3     1  UNL1        0.0556
     29 C         144.5491  143.0054  164.2764 C.ar    1  UNL1        0.1001
     30 N         145.6078  141.9471  164.3717 N.ar    1  UNL1       -0.2085
     31 C         145.4233  141.0020  163.2216 C.ar    1  UNL1        0.2849
     32 O         144.2505  141.4762  162.4155 O.2     1  UNL1       -0.4283
     33 C         143.7103  142.7144  163.0674 C.ar    1  UNL1        0.1964
@<TRIPOS>BOND
     1    28    29    1
     2    29    30   ar
     3    30    31   ar
     4    31    32   ar
     5    32    33   ar
     6    33    22    1
     7    22    23   ar
     8    23    24   ar
     9    24    25   ar
    10    25    21    1
    11    21    20    1
    12    20    19    1
    13    19    18    1
    14    18     1    1
    15     1     2    1
    16     2     3    1
    17     4     3    1
    18     4     5    1
    19     5     6    1
    20     6     8    1
    21     8     9   ar
    22     9    10   ar
    23    10    11   ar
    24    11    14    1
    25    14    15    1
    26    14    16    1
    27    14    17    1
    28    11    12   ar
    29    12    13   ar
    30     4     7    1
    31    25    26   ar
    32    26    27    1
    33    33    29   ar
    34    26    22   ar
    35     7     1    1
    36     6     4    1
    37    13     8   ar
@<TRIPOS>MOLECULE
*****
 33 37 0 0 0
SMALL
GASTEIGER

@<TRIPOS>ATOM
      1 N         143.6237  143.4686  164.0218 N.3     1  UNL1       -0.2726
      2 C         143.4403  144.9194  163.6879 C.3     1  UNL1        0.0721
      3 C         141.9998  145.2693  163.9176 C.3     1  UNL1        0.0190
      4 C         141.2931  144.0348  164.3933 C.3     1  UNL1        0.0201
      5 C         139.9413  144.6705  164.5294 C.3     1  UNL1        0.0061
      6 C         140.1248  143.2197  164.8633 C.3     1  UNL1        0.0237
      7 C         142.2967  142.9219  164.4577 C.3     1  UNL1        0.0724
      8 C         139.5562  141.9115  165.3274 C.ar    1  UNL1       -0.0225
      9 C         139.9618  141.3468  166.6565 C.ar    1  UNL1       -0.0043
     10 C         139.3932  140.0386  167.1206 C.ar    1  UNL1        0.0035
     11 C         138.4191  139.2952  166.2555 C.ar    1  UNL1        0.0714
     12 C         138.0135  139.8599  164.9263 C.ar    1  UNL1        0.0035
     13 C         138.5821  141.1681  164.4623 C.ar    1  UNL1       -0.0043
     14 C         137.8506  137.9870  166.7196 C.3     1  UNL1        0.4186
     15 F         137.2820  136.6788  167.1837 F       1  UNL1       -0.1659
     16 F         138.4272  137.3082  165.5126 F       1  UNL1       -0.1659
     17 F         137.2739  138.6658  167.9265 F       1  UNL1       -0.1659
     18 C         144.9086  142.6996  163.9349 C.3     1  UNL1        0.0730
     19 C         145.2239  141.9025  162.7040 C.3     1  UNL1        0.0294
     20 C         145.2794  142.5788  161.3662 C.3     1  UNL1        0.0666
     21 S         144.0726  142.5791  160.4753 S.3     1  UNL1       -0.0756
     22 C         141.1250  140.0600  160.6527 C.ar    1  UNL1        0.2029
     23 N         142.2678  139.1463  160.3220 N.ar    1  UNL1       -0.1250
     24 N         143.5110  139.9787  160.2153 N.ar    1  UNL1       -0.1220
     25 C         143.1367  141.4070  160.4801 C.ar    1  UNL1        0.1933
     26 N         141.6621  141.4572  160.7504 N.ar    1  UNL1       -0.2860
     27 C         140.8645  142.6885  161.0634 C.3     1  UNL1        0.1341
     28 C         140.0690  137.6813  162.6215 C.3     1  UNL1        0.0556
     29 C         139.2108  138.5554  161.7558 C.ar    1  UNL1        0.1001
     30 N         137.7165  138.4896  161.6431 N.ar    1  UNL1       -0.2085
     31 C         137.2783  139.5423  160.6685 C.ar    1  UNL1        0.2849
     32 O         138.5019  140.2587  160.1788 O.2     1  UNL1       -0.4283
     33 C         139.6962  139.6487  160.8509 C.ar    1  UNL1        0.1964
@<TRIPOS>BOND
     1    28    29    1
     2    29    30   ar
     3    30    31   ar
     4    31    32   ar
     5    32    33   ar
     6    33    22    1
     7    22    23   ar
     8    23    24   ar
     9    24    25   ar
    10    25    21    1
    11    21    20    1
    12    20    19    1
    13    19    18    1
    14    18     1    1
    15     1     2    1
    16     2     3    1
    17     4     3    1
    18     4     5    1
    19     5     6    1
    20     6     8    1
    21     8     9   ar
    22     9    10   ar
    23    10    11   ar
    24    11    14    1
    25    14    15    1
    26    14    16    1
    27    14    17    1
    28    11    12   ar
    29    12    13   ar
    30     4     7    1
    31    25    26   ar
    32    26    27    1
    33    33    29   ar
    34    26    22   ar
    35     7     1    1
    36     6     4    1
    37    13     8   ar
@<TRIPOS>MOLECULE
*****
 33 37 0 0 0
SMALL
GASTEIGER

@<TRIPOS>ATOM
      1 N         138.2335  140.3993  162.9262 N.3     1  UNL1       -0.2726
      2 C         138.0276  139.0496  162.3050 C.3     1  UNL1        0.0721
      3 C         138.7369  138.0360  163.1533 C.3     1  UNL1        0.0190
      4 C         139.3812  138.7592  164.2986 C.3     1  UNL1        0.0201
      5 C         139.9821  137.5412  164.9352 C.3     1  UNL1        0.0061
      6 C         140.1879  138.8909  165.5563 C.3     1  UNL1        0.0237
      7 C         139.0700  140.2199  164.1583 C.3     1  UNL1        0.0724
      8 C         140.7725  139.7462  166.6411 C.ar    1  UNL1       -0.0225
      9 C         139.8686  140.4962  167.5741 C.ar    1  UNL1       -0.0043
     10 C         140.4532  141.3515  168.6588 C.ar    1  UNL1        0.0035
     11 C         141.9418  141.4568  168.8105 C.ar    1  UNL1        0.0714
     12 C         142.8457  140.7069  167.8775 C.ar    1  UNL1        0.0035
     13 C         142.2611  139.8516  166.7928 C.ar    1  UNL1       -0.0043
     14 C         142.5264  142.3121  169.8952 C.3     1  UNL1        0.4186
     15 F         143.1110  143.1675  170.9800 F       1  UNL1       -0.1659
     16 F         141.2965  142.0981  170.7268 F       1  UNL1       -0.1659
     17 F         143.7563  142.5261  169.0637 F       1  UNL1       -0.1659
     18 C         137.6970  141.7001  162.4065 C.3     1  UNL1        0.0730
     19 C         137.4286  142.8324  163.3530 C.3     1  UNL1        0.0294
     20 C         137.6635  144.2477  162.9152 C.3     1  UNL1        0.0666
     21 S         139.0498  144.8200  162.9394 S.3     1  UNL1       -0.0756
     22 C         142.1795  142.8289  164.0825 C.ar    1  UNL1        0.2029
     23 N         141.5102  143.0971  165.3978 N.ar    1  UNL1       -0.1250
     24 N         140.2564  143.8756  165.1297 N.ar    1  UNL1       -0.1220
     25 C         140.1508  144.0885  163.6487 C.ar    1  UNL1        0.1933
     26 N         141.3393  143.4417  163.0014 N.ar    1  UNL1       -0.2860
     27 C         141.6356  143.4127  161.5312 C.3     1  UNL1        0.1341
     28 C         142.4835  139.8629  162.7558 C.3     1  UNL1        0.0556
     29 C         143.6033  140.7163  163.2734 C.ar    1  UNL1        0.1001
     30 N         145.0594  140.3561  163.2720 N.ar    1  UNL1       -0.2085
     31 C         145.8196  141.4969  163.8810 C.ar    1  UNL1        0.2849
     32 O         144.8333  142.5620  164.2587 O.2     1  UNL1       -0.4283
     33 C         143.4636  142.0796  163.8832 C.ar    1  UNL1        0.1964
@<TRIPOS>BOND
     1    28    29    1
     2    29    30   ar
     3    30    31   ar
     4    31    32   ar
     5    32    33   ar
     6    33    22    1
     7    22    23   ar
     8    23    24   ar
     9    24    25   ar
    10    25    21    1
    11    21    20    1
    12    20    19    1
    13    19    18    1
    14    18     1    1
    15     1     2    1
    16     2     3    1
    17     4     3    1
    18     4     5    1
    19     5     6    1
    20     6     8    1
    21     8     9   ar
    22     9    10   ar
    23    10    11   ar
    24    11    14    1
    25    14    15    1
    26    14    16    1
    27    14    17    1
    28    11    12   ar
    29    12    13   ar
    30     4     7    1
    31    25    26   ar
    32    26    27    1
    33    33    29   ar
    34    26    22   ar
    35     7     1    1
    36     6     4    1
    37    13     8   ar
@<TRIPOS>MOLECULE
*****
 33 37 0 0 0
SMALL
GASTEIGER

@<TRIPOS>ATOM
      1 N         141.1791  138.2888  163.3327 N.3     1  UNL1       -0.2726
      2 C         139.8788  137.6273  162.9842 C.3     1  UNL1        0.0721
      3 C         138.8975  137.9292  164.0777 C.3     1  UNL1        0.0190
      4 C         139.5912  138.7774  165.1021 C.3     1  UNL1        0.0201
      5 C         138.4134  138.9077  166.0216 C.3     1  UNL1        0.0061
      6 C         139.7137  139.5692  166.3701 C.3     1  UNL1        0.0237
      7 C         141.0014  138.9996  164.6416 C.3     1  UNL1        0.0724
      8 C         140.5351  140.4083  167.3034 C.ar    1  UNL1       -0.0225
      9 C         140.1996  141.8568  167.5018 C.ar    1  UNL1       -0.0043
     10 C         141.0211  142.6960  168.4351 C.ar    1  UNL1        0.0035
     11 C         142.1780  142.0866  169.1701 C.ar    1  UNL1        0.0714
     12 C         142.5134  140.6381  168.9717 C.ar    1  UNL1        0.0035
     13 C         141.6920  139.7989  168.0384 C.ar    1  UNL1       -0.0043
     14 C         142.9994  142.9257  170.1034 C.3     1  UNL1        0.4186
     15 F         143.8208  143.7649  171.0368 F       1  UNL1       -0.1659
     16 F         144.1572  141.9886  169.9269 F       1  UNL1       -0.1659
     17 F         141.8415  143.8628  170.2800 F       1  UNL1       -0.1659
     18 C         142.4365  138.2469  162.5158 C.3     1  UNL1        0.0730
     19 C         143.6750  138.9340  163.0098 C.3     1  UNL1        0.0294
     20 C         144.4716  139.8027  162.0819 C.3     1  UNL1        0.0666
     21 S         144.5035  141.2881  162.2875 S.3     1  UNL1       -0.0756
     22 C         141.2760  142.8330  163.7915 C.ar    1  UNL1        0.2029
     23 N         142.2736  143.1399  164.8689 N.ar    1  UNL1       -0.1250
     24 N         143.6040  142.5985  164.4366 N.ar    1  UNL1       -0.1220
     25 C         143.4287  141.9571  163.0921 C.ar    1  UNL1        0.1933
     26 N         141.9900  142.1020  162.6934 N.ar    1  UNL1       -0.2860
     27 C         141.3734  141.6034  161.4201 C.3     1  UNL1        0.1341
     28 C         139.9428  145.4938  162.4526 C.3     1  UNL1        0.0556
     29 C         139.2074  144.4169  163.1938 C.ar    1  UNL1        0.1001
     30 N         137.7300  144.3738  163.4497 N.ar    1  UNL1       -0.2085
     31 C         137.4297  143.1243  164.2232 C.ar    1  UNL1        0.2849
     32 O         138.7215  142.3950  164.4455 O.2     1  UNL1       -0.4283
     33 C         139.8201  143.1939  163.8092 C.ar    1  UNL1        0.1964
@<TRIPOS>BOND
     1    28    29    1
     2    29    30   ar
     3    30    31   ar
     4    31    32   ar
     5    32    33   ar
     6    33    22    1
     7    22    23   ar
     8    23    24   ar
     9    24    25   ar
    10    25    21    1
    11    21    20    1
    12    20    19    1
    13    19    18    1
    14    18     1    1
    15     1     2    1
    16     2     3    1
    17     4     3    1
    18     4     5    1
    19     5     6    1
    20     6     8    1
    21     8     9   ar
    22     9    10   ar
    23    10    11   ar
    24    11    14    1
    25    14    15    1
    26    14    16    1
    27    14    17    1
    28    11    12   ar
    29    12    13   ar
    30     4     7    1
    31    25    26   ar
    32    26    27    1
    33    33    29   ar
    34    26    22   ar
    35     7     1    1
    36     6     4    1
    37    13     8   ar
@<TRIPOS>MOLECULE
*****
 33 37 0 0 0
SMALL
GASTEIGER

@<TRIPOS>ATOM
      1 N         142.8011  143.3129  162.0236 N.3     1  UNL1       -0.2726
      2 C         144.0977  143.1923  161.2791 C.3     1  UNL1        0.0721
      3 C         145.0360  142.3708  162.1126 C.3     1  UNL1        0.0190
      4 C         144.3194  141.9838  163.3722 C.3     1  UNL1        0.0201
      5 C         145.4573  141.2094  163.9684 C.3     1  UNL1        0.0061
      6 C         144.1608  141.3301  164.7129 C.3     1  UNL1        0.0237
      7 C         142.9381  142.5660  163.3172 C.3     1  UNL1        0.0724
      8 C         143.3206  141.0223  165.9168 C.ar    1  UNL1       -0.0225
      9 C         143.0351  142.0945  166.9261 C.ar    1  UNL1       -0.0043
     10 C         142.1949  141.7868  168.1300 C.ar    1  UNL1        0.0035
     11 C         141.6402  140.4067  168.3245 C.ar    1  UNL1        0.0714
     12 C         141.9257  139.3345  167.3152 C.ar    1  UNL1        0.0035
     13 C         142.7659  139.6423  166.1113 C.ar    1  UNL1       -0.0043
     14 C         140.8001  140.0990  169.5284 C.3     1  UNL1        0.4186
     15 F         139.9598  139.7912  170.7323 F       1  UNL1       -0.1659
     16 F         141.7800  139.0413  169.9419 F       1  UNL1       -0.1659
     17 F         139.8201  141.1567  169.1149 F       1  UNL1       -0.1659
     18 C         141.5816  144.0509  161.5565 C.3     1  UNL1        0.0730
     19 C         140.9771  145.1208  162.4167 C.3     1  UNL1        0.0294
     20 C         139.5241  145.4654  162.2750 C.3     1  UNL1        0.0666
     21 S         138.4888  144.6679  163.0113 S.3     1  UNL1       -0.0756
     22 C         139.4114  141.1869  164.4595 C.ar    1  UNL1        0.2029
     23 N         139.6423  142.0674  165.6518 N.ar    1  UNL1       -0.1250
     24 N         139.3248  143.4785  165.2544 N.ar    1  UNL1       -0.1220
     25 C         138.8977  143.4702  163.8165 C.ar    1  UNL1        0.1933
     26 N         138.9512  142.0539  163.3252 N.ar    1  UNL1       -0.2860
     27 C         138.6052  141.5867  161.9425 C.3     1  UNL1        0.1341
     28 C         138.0231  139.0031  166.4479 C.3     1  UNL1        0.0556
     29 C         138.9683  138.6967  165.3242 C.ar    1  UNL1        0.1001
     30 N         139.4413  137.3327  164.9171 N.ar    1  UNL1       -0.2085
     31 C         140.3718  137.4934  163.7516 C.ar    1  UNL1        0.2849
     32 O         140.4738  138.9568  163.4383 O.2     1  UNL1       -0.4283
     33 C         139.6064  139.7004  164.4102 C.ar    1  UNL1        0.1964
@<TRIPOS>BOND
     1    28    29    1
     2    29    30   ar
     3    30    31   ar
     4    31    32   ar
     5    32    33   ar
     6    33    22    1
     7    22    23   ar
     8    23    24   ar
     9    24    25   ar
    10    25    21    1
    11    21    20    1
    12    20    19    1
    13    19    18    1
    14    18     1    1
    15     1     2    1
    16     2     3    1
    17     4     3    1
    18     4     5    1
    19     5     6    1
    20     6     8    1
    21     8     9   ar
    22     9    10   ar
    23    10    11   ar
    24    11    14    1
    25    14    15    1
    26    14    16    1
    27    14    17    1
    28    11    12   ar
    29    12    13   ar
    30     4     7    1
    31    25    26   ar
    32    26    27    1
    33    33    29   ar
    34    26    22   ar
    35     7     1    1
    36     6     4    1
    37    13     8   ar
@<TRIPOS>MOLECULE
*****
 33 37 0 0 0
SMALL
GASTEIGER

@<TRIPOS>ATOM
      1 N         138.2127  142.8508  164.0441 N.3     1  UNL1       -0.2726
      2 C         137.4523  142.1239  162.9748 C.3     1  UNL1        0.0721
      3 C         137.6658  140.6525  163.1731 C.3     1  UNL1        0.0190
      4 C         138.5582  140.4700  164.3649 C.3     1  UNL1        0.0201
      5 C         138.5863  138.9712  164.3117 C.3     1  UNL1        0.0061
      6 C         139.3467  139.6981  165.3810 C.3     1  UNL1        0.0237
      7 C         138.8961  141.8286  164.9033 C.3     1  UNL1        0.0724
      8 C         140.2410  139.6721  166.5850 C.ar    1  UNL1       -0.0225
      9 C         139.6729  139.9400  167.9471 C.ar    1  UNL1       -0.0043
     10 C         140.5671  139.9140  169.1511 C.ar    1  UNL1        0.0035
     11 C         142.0295  139.6202  168.9929 C.ar    1  UNL1        0.0714
     12 C         142.5977  139.3523  167.6307 C.ar    1  UNL1        0.0035
     13 C         141.7034  139.3783  166.4268 C.ar    1  UNL1       -0.0043
     14 C         142.9238  139.5943  170.1969 C.3     1  UNL1        0.4186
     15 F         143.8181  139.5683  171.4009 F       1  UNL1       -0.1659
     16 F         143.2165  141.0536  170.0109 F       1  UNL1       -0.1659
     17 F         142.6311  138.1349  170.3828 F       1  UNL1       -0.1659
     18 C         138.2782  144.3386  164.2229 C.3     1  UNL1        0.0730
     19 C         139.3101  145.1381  163.4841 C.3     1  UNL1        0.0294
     20 C         140.7534  145.0517  163.8835 C.3     1  UNL1        0.0666
     21 S         141.8265  145.1242  162.8380 S.3     1  UNL1       -0.0756
     22 C         143.5904  141.7486  162.0898 C.ar    1  UNL1        0.2029
     23 N         144.7516  142.5922  162.5258 N.ar    1  UNL1       -0.1250
     24 N         144.2322  143.9593  162.8591 N.ar    1  UNL1       -0.1220
     25 C         142.7499  143.9608  162.6291 C.ar    1  UNL1        0.1933
     26 N         142.3532  142.5945  162.1537 N.ar    1  UNL1       -0.2860
     27 C         140.9634  142.1519  161.8036 C.3     1  UNL1        0.1341
     28 C         144.5422  139.2397  163.9469 C.3     1  UNL1        0.0556
     29 C         144.0924  139.1584  162.5183 C.ar    1  UNL1        0.1001
     30 N         144.0012  137.9096  161.6923 N.ar    1  UNL1       -0.2085
     31 C         143.5073  138.2910  160.3283 C.ar    1  UNL1        0.2849
     32 O         143.2933  139.7755  160.3112 O.2     1  UNL1       -0.4283
     33 C         143.6549  140.3116  161.6646 C.ar    1  UNL1        0.1964
@<TRIPOS>BOND
     1    28    29    1
     2    29    30   ar
     3    30    31   ar
     4    31    32   ar
     5    32    33   ar
     6    33    22    1
     7    22    23   ar
     8    23    24   ar
     9    24    25   ar
    10    25    21    1
    11    21    20    1
    12    20    19    1
    13    19    18    1
    14    18     1    1
    15     1     2    1
    16     2     3    1
    17     4     3    1
    18     4     5    1
    19     5     6    1
    20     6     8    1
    21     8     9   ar
    22     9    10   ar
    23    10    11   ar
    24    11    14    1
    25    14    15    1
    26    14    16    1
    27    14    17    1
    28    11    12   ar
    29    12    13   ar
    30     4     7    1
    31    25    26   ar
    32    26    27    1
    33    33    29   ar
    34    26    22   ar
    35     7     1    1
    36     6     4    1
    37    13     8   ar
@<TRIPOS>MOLECULE
*****
 33 37 0 0 0
SMALL
GASTEIGER

@<TRIPOS>ATOM
      1 N         142.1947  144.7398  163.4031 N.3     1  UNL1       -0.2726
      2 C         143.4369  144.7325  162.5623 C.3     1  UNL1        0.0721
      3 C         144.3752  143.7095  163.1306 C.3     1  UNL1        0.0190
      4 C         143.7130  143.0846  164.3226 C.3     1  UNL1        0.0201
      5 C         144.8390  142.1515  164.6564 C.3     1  UNL1        0.0061
      6 C         143.5969  142.1588  165.4971 C.3     1  UNL1        0.0237
      7 C         142.3653  143.7213  164.4910 C.3     1  UNL1        0.0724
      8 C         142.8126  141.6285  166.6606 C.ar    1  UNL1       -0.0225
      9 C         143.0503  142.1755  168.0370 C.ar    1  UNL1       -0.0043
     10 C         142.2660  141.6452  169.2005 C.ar    1  UNL1        0.0035
     11 C         141.2442  140.5679  168.9876 C.ar    1  UNL1        0.0714
     12 C         141.0065  140.0210  167.6113 C.ar    1  UNL1        0.0035
     13 C         141.7908  140.5513  166.4478 C.ar    1  UNL1       -0.0043
     14 C         140.4599  140.0377  170.1511 C.3     1  UNL1        0.4186
     15 F         139.6757  139.5073  171.3147 F       1  UNL1       -0.1659
     16 F         139.4117  141.0860  169.9224 F       1  UNL1       -0.1659
     17 F         141.5081  138.9894  170.3799 F       1  UNL1       -0.1659
     18 C         140.9928  145.6123  163.1928 C.3     1  UNL1        0.0730
     19 C         140.1835  145.4842  161.9364 C.3     1  UNL1        0.0294
     20 C         140.7481  144.7583  160.7513 C.3     1  UNL1        0.0666
     21 S         140.1161  143.4810  160.2833 S.3     1  UNL1       -0.0756
     22 C         138.4843  141.0940  162.8727 C.ar    1  UNL1        0.2029
     23 N         137.2915  141.8747  162.4061 N.ar    1  UNL1       -0.1250
     24 N         137.7576  142.8639  161.3793 N.ar    1  UNL1       -0.1220
     25 C         139.2385  142.6946  161.2113 C.ar    1  UNL1        0.1933
     26 N         139.6877  141.6008  162.1342 N.ar    1  UNL1       -0.2860
     27 C         141.0934  141.1014  162.2912 C.3     1  UNL1        0.1341
     28 C         139.2647  137.9691  162.3480 C.3     1  UNL1        0.0556
     29 C         138.8341  138.5625  163.6565 C.ar    1  UNL1        0.1001
     30 N         138.6866  137.8239  164.9537 N.ar    1  UNL1       -0.2085
     31 C         138.2367  138.8037  165.9966 C.ar    1  UNL1        0.2849
     32 O         138.1062  140.1480  165.3439 O.2     1  UNL1       -0.4283
     33 C         138.4754  139.9989  163.8977 C.ar    1  UNL1        0.1964
@<TRIPOS>BOND
     1    28    29    1
     2    29    30   ar
     3    30    31   ar
     4    31    32   ar
     5    32    33   ar
     6    33    22    1
     7    22    23   ar
     8    23    24   ar
     9    24    25   ar
    10    25    21    1
    11    21    20    1
    12    20    19    1
    13    19    18    1
    14    18     1    1
    15     1     2    1
    16     2     3    1
    17     4     3    1
    18     4     5    1
    19     5     6    1
    20     6     8    1
    21     8     9   ar
    22     9    10   ar
    23    10    11   ar
    24    11    14    1
    25    14    15    1
    26    14    16    1
    27    14    17    1
    28    11    12   ar
    29    12    13   ar
    30     4     7    1
    31    25    26   ar
    32    26    27    1
    33    33    29   ar
    34    26    22   ar
    35     7     1    1
    36     6     4    1
    37    13     8   ar
