@<TRIPOS>MOLECULE
*****
 25 27 0 0 0
SMALL
GASTEIGER

@<TRIPOS>ATOM
      1 N         141.7543  140.7641  169.4966 N.am    1  UNL1       -0.2752
      2 C         141.7155  140.5902  168.0073 C.3     1  UNL1        0.1206
      3 C         140.4294  140.2226  167.3283 C.3     1  UNL1        0.1141
      4 C         139.1434  139.8549  166.6494 C.3     1  UNL1        0.0463
      5 C         139.1047  139.6810  165.1600 C.3     1  UNL1        0.0746
      6 N         140.3519  139.8748  164.3496 N.3     1  UNL1       -0.2722
      7 C         141.6379  140.2424  165.0285 C.3     1  UNL1        0.0746
      8 C         141.6767  140.4163  166.5179 C.3     1  UNL1        0.0463
      9 O         139.1822  140.0289  168.1387 O.3     1  UNL1       -0.3501
     10 C         139.2210  140.2028  169.6282 C.3     1  UNL1        0.1909
     11 C         137.9737  140.0091  170.4386 C.3     1  UNL1        0.0420
     12 C         140.5070  140.5704  170.3071 C.2     1  UNL1        0.2529
     13 O         140.5458  140.7443  171.7965 O.2     1  UNL1       -0.2722
     14 C         143.8205  142.3249  169.7088 C.3     1  UNL1        0.0233
     15 C         143.0403  141.1318  170.1756 C.3     1  UNL1        0.0936
     16 C         140.3131  139.7008  162.8602 C.3     1  UNL1        0.0769
     17 C         139.9201  140.8507  161.9808 C.3     1  UNL1        0.0460
     18 C         139.5967  142.1834  162.5886 C.ar    1  UNL1        0.0089
     19 C         140.6914  143.1762  162.8452 C.ar    1  UNL1        0.0276
     20 C         140.3680  144.5088  163.4530 C.ar    1  UNL1        0.1400
     21 F         141.4627  145.5017  163.7096 F       1  UNL1       -0.2042
     22 C         138.9498  144.8486  163.8041 C.ar    1  UNL1        0.0319
     23 C         137.8551  143.8559  163.5475 C.ar    1  UNL1        0.0316
     24 C         138.1785  142.5232  162.9398 C.ar    1  UNL1        0.1363
     25 F         137.0837  141.5304  162.6831 F       1  UNL1       -0.2045
@<TRIPOS>BOND
     1    14    15    1
     2    15     1    1
     3     1     2    1
     4     2     3    1
     5     3     4    1
     6     4     5    1
     7     5     6    1
     8     6    16    1
     9    16    17    1
    10    17    18    1
    11    18    19   ar
    12    19    20   ar
    13    20    21    1
    14    20    22   ar
    15    22    23   ar
    16    23    24   ar
    17    24    25    1
    18     6     7    1
    19     7     8    1
    20     3     9    1
    21     9    10    1
    22    10    11    1
    23    10    12    1
    24    12    13    2
    25    12     1   am
    26     8     3    1
    27    24    18   ar
@<TRIPOS>MOLECULE
*****
 25 27 0 0 0
SMALL
GASTEIGER

@<TRIPOS>ATOM
      1 N         140.5561  140.9047  168.5530 N.am    1  UNL1       -0.2752
      2 C         141.6045  141.3154  167.5619 C.3     1  UNL1        0.1206
      3 C         141.5341  140.8210  166.1474 C.3     1  UNL1        0.1141
      4 C         141.4638  140.3266  164.7330 C.3     1  UNL1        0.0463
      5 C         142.5121  140.7373  163.7420 C.3     1  UNL1        0.0746
      6 N         143.6309  141.6424  164.1653 N.3     1  UNL1       -0.2722
      7 C         143.7012  142.1368  165.5797 C.3     1  UNL1        0.0746
      8 C         142.6529  141.7261  166.5708 C.3     1  UNL1        0.0463
      9 O         140.4154  139.9159  165.7241 O.3     1  UNL1       -0.3501
     10 C         139.3670  139.5052  166.7152 C.3     1  UNL1        0.1909
     11 C         138.2483  138.6001  166.2918 C.3     1  UNL1        0.0420
     12 C         139.4374  139.9996  168.1296 C.2     1  UNL1        0.2529
     13 O         138.3890  139.5889  169.1207 O.2     1  UNL1       -0.2722
     14 C         139.9621  142.6899  170.3447 C.3     1  UNL1        0.0233
     15 C         140.6265  141.3991  169.9675 C.3     1  UNL1        0.0936
     16 C         144.6793  142.0531  163.1742 C.3     1  UNL1        0.0769
     17 C         144.5009  143.3066  162.3699 C.3     1  UNL1        0.0460
     18 C         143.1860  144.0283  162.3874 C.ar    1  UNL1        0.0089
     19 C         142.1734  143.7685  161.3118 C.ar    1  UNL1        0.0276
     20 C         140.8586  144.4902  161.3294 C.ar    1  UNL1        0.1400
     21 F         139.8459  144.2303  160.2538 F       1  UNL1       -0.2042
     22 C         140.5564  145.4718  162.4227 C.ar    1  UNL1        0.0319
     23 C         141.5691  145.7317  163.4983 C.ar    1  UNL1        0.0316
     24 C         142.8839  145.0099  163.4807 C.ar    1  UNL1        0.1363
     25 F         143.8966  145.2698  164.5563 F       1  UNL1       -0.2045
@<TRIPOS>BOND
     1    14    15    1
     2    15     1    1
     3     1     2    1
     4     2     3    1
     5     3     4    1
     6     4     5    1
     7     5     6    1
     8     6    16    1
     9    16    17    1
    10    17    18    1
    11    18    19   ar
    12    19    20   ar
    13    20    21    1
    14    20    22   ar
    15    22    23   ar
    16    23    24   ar
    17    24    25    1
    18     6     7    1
    19     7     8    1
    20     3     9    1
    21     9    10    1
    22    10    11    1
    23    10    12    1
    24    12    13    2
    25    12     1   am
    26     8     3    1
    27    24    18   ar
@<TRIPOS>MOLECULE
*****
 25 27 0 0 0
SMALL
GASTEIGER

@<TRIPOS>ATOM
      1 N         140.8829  140.2219  168.1758 N.am    1  UNL1       -0.2752
      2 C         140.0104  140.5302  166.9954 C.3     1  UNL1        0.1206
      3 C         140.4122  140.0705  165.6252 C.3     1  UNL1        0.1141
      4 C         140.8141  139.6108  164.2551 C.3     1  UNL1        0.0463
      5 C         139.9415  139.9191  163.0747 C.3     1  UNL1        0.0746
      6 N         138.6671  140.6872  163.2643 N.3     1  UNL1       -0.2722
      7 C         138.2653  141.1469  164.6343 C.3     1  UNL1        0.0746
      8 C         139.1378  140.8386  165.8148 C.3     1  UNL1        0.0463
      9 O         141.6866  139.3024  165.4356 O.3     1  UNL1       -0.3501
     10 C         142.5592  138.9941  166.6161 C.3     1  UNL1        0.1909
     11 C         143.8336  138.2260  166.4265 C.3     1  UNL1        0.0420
     12 C         142.1574  139.4538  167.9862 C.2     1  UNL1        0.2529
     13 O         143.0299  139.1455  169.1667 O.2     1  UNL1       -0.2722
     14 C         139.0695  140.4924  170.0165 C.3     1  UNL1        0.0233
     15 C         140.4811  140.6816  169.5460 C.3     1  UNL1        0.0936
     16 C         137.7945  140.9955  162.0837 C.3     1  UNL1        0.0769
     17 C         138.0701  142.2072  161.2436 C.3     1  UNL1        0.0460
     18 C         139.0811  143.2190  161.6953 C.ar    1  UNL1        0.0089
     19 C         140.4949  143.1391  161.2006 C.ar    1  UNL1        0.0276
     20 C         141.5058  144.1510  161.6524 C.ar    1  UNL1        0.1400
     21 F         142.9197  144.0711  161.1577 F       1  UNL1       -0.2042
     22 C         141.1030  145.2427  162.5989 C.ar    1  UNL1        0.0319
     23 C         139.6892  145.3226  163.0936 C.ar    1  UNL1        0.0316
     24 C         138.6783  144.3108  162.6418 C.ar    1  UNL1        0.1363
     25 F         137.2644  144.3906  163.1365 F       1  UNL1       -0.2045
@<TRIPOS>BOND
     1    14    15    1
     2    15     1    1
     3     1     2    1
     4     2     3    1
     5     3     4    1
     6     4     5    1
     7     5     6    1
     8     6    16    1
     9    16    17    1
    10    17    18    1
    11    18    19   ar
    12    19    20   ar
    13    20    21    1
    14    20    22   ar
    15    22    23   ar
    16    23    24   ar
    17    24    25    1
    18     6     7    1
    19     7     8    1
    20     3     9    1
    21     9    10    1
    22    10    11    1
    23    10    12    1
    24    12    13    2
    25    12     1   am
    26     8     3    1
    27    24    18   ar
@<TRIPOS>MOLECULE
*****
 25 27 0 0 0
SMALL
GASTEIGER

@<TRIPOS>ATOM
      1 N         140.0593  141.6368  168.1999 N.am    1  UNL1       -0.2752
      2 C         140.3876  142.4074  166.9556 C.3     1  UNL1        0.1206
      3 C         139.9746  141.8776  165.6144 C.3     1  UNL1        0.1141
      4 C         139.5616  141.3478  164.2733 C.3     1  UNL1        0.0463
      5 C         139.8899  142.1183  163.0289 C.3     1  UNL1        0.0746
      6 N         140.6313  143.4187  163.1257 N.3     1  UNL1       -0.2722
      7 C         141.0443  143.9485  164.4669 C.3     1  UNL1        0.0746
      8 C         140.7160  143.1780  165.7112 C.3     1  UNL1        0.0463
      9 O         139.2332  140.5772  165.5176 O.3     1  UNL1       -0.3501
     10 C         138.9048  139.8066  166.7620 C.3     1  UNL1        0.1909
     11 C         138.1635  138.5063  166.6652 C.3     1  UNL1        0.0420
     12 C         139.3179  140.3365  168.1031 C.2     1  UNL1        0.2529
     13 O         138.9895  139.5659  169.3475 O.2     1  UNL1       -0.2722
     14 C         140.5548  143.6468  169.7698 C.3     1  UNL1        0.0233
     15 C         140.4723  142.1666  169.5411 C.3     1  UNL1        0.0936
     16 C         140.9597  144.1893  161.8813 C.3     1  UNL1        0.0769
     17 C         142.2526  143.9388  161.1634 C.3     1  UNL1        0.0460
     18 C         143.2669  143.0020  161.7497 C.ar    1  UNL1        0.0089
     19 C         143.3281  141.5769  161.2858 C.ar    1  UNL1        0.0276
     20 C         144.3423  140.6402  161.8721 C.ar    1  UNL1        0.1400
     21 F         144.4035  139.2150  161.4082 F       1  UNL1       -0.2042
     22 C         145.2954  141.1286  162.9224 C.ar    1  UNL1        0.0319
     23 C         145.2342  142.5538  163.3863 C.ar    1  UNL1        0.0316
     24 C         144.2200  143.4905  162.8000 C.ar    1  UNL1        0.1363
     25 F         144.1588  144.9157  163.2639 F       1  UNL1       -0.2045
@<TRIPOS>BOND
     1    14    15    1
     2    15     1    1
     3     1     2    1
     4     2     3    1
     5     3     4    1
     6     4     5    1
     7     5     6    1
     8     6    16    1
     9    16    17    1
    10    17    18    1
    11    18    19   ar
    12    19    20   ar
    13    20    21    1
    14    20    22   ar
    15    22    23   ar
    16    23    24   ar
    17    24    25    1
    18     6     7    1
    19     7     8    1
    20     3     9    1
    21     9    10    1
    22    10    11    1
    23    10    12    1
    24    12    13    2
    25    12     1   am
    26     8     3    1
    27    24    18   ar
@<TRIPOS>MOLECULE
*****
 25 27 0 0 0
SMALL
GASTEIGER

@<TRIPOS>ATOM
      1 N         141.0526  141.2992  168.9784 N.am    1  UNL1       -0.2752
      2 C         141.3865  141.0552  167.5366 C.3     1  UNL1        0.1206
      3 C         142.2946  139.9228  167.1582 C.3     1  UNL1        0.1141
      4 C         143.2026  138.7904  166.7799 C.3     1  UNL1        0.0463
      5 C         143.5365  138.5464  165.3381 C.3     1  UNL1        0.0746
      6 N         142.9624  139.4348  164.2745 N.3     1  UNL1       -0.2722
      7 C         142.0544  140.5672  164.6528 C.3     1  UNL1        0.0746
      8 C         141.7205  140.8112  166.0947 C.3     1  UNL1        0.0463
      9 O         142.8687  139.0343  168.2217 O.3     1  UNL1       -0.3501
     10 C         142.5347  139.2784  169.6637 C.3     1  UNL1        0.1909
     11 C         143.1088  138.3899  170.7272 C.3     1  UNL1        0.0420
     12 C         141.6267  140.4108  170.0420 C.2     1  UNL1        0.2529
     13 O         141.2928  140.6548  171.4839 O.2     1  UNL1       -0.2722
     14 C         140.7246  143.7454  169.7901 C.3     1  UNL1        0.0233
     15 C         140.1446  142.4317  169.3568 C.3     1  UNL1        0.0936
     16 C         143.2963  139.1908  162.8326 C.3     1  UNL1        0.0769
     17 C         142.5676  138.1293  162.0633 C.3     1  UNL1        0.0460
     18 C         141.0695  138.1519  161.9888 C.ar    1  UNL1        0.0089
     19 C         140.3864  138.7953  160.8186 C.ar    1  UNL1        0.0276
     20 C         138.8885  138.8179  160.7441 C.ar    1  UNL1        0.1400
     21 F         138.2053  139.4613  159.5739 F       1  UNL1       -0.2042
     22 C         138.0736  138.1970  161.8398 C.ar    1  UNL1        0.0319
     23 C         138.7567  137.5536  163.0100 C.ar    1  UNL1        0.0316
     24 C         140.2547  137.5310  163.0845 C.ar    1  UNL1        0.1363
     25 F         140.9378  136.8876  164.2547 F       1  UNL1       -0.2045
@<TRIPOS>BOND
     1    14    15    1
     2    15     1    1
     3     1     2    1
     4     2     3    1
     5     3     4    1
     6     4     5    1
     7     5     6    1
     8     6    16    1
     9    16    17    1
    10    17    18    1
    11    18    19   ar
    12    19    20   ar
    13    20    21    1
    14    20    22   ar
    15    22    23   ar
    16    23    24   ar
    17    24    25    1
    18     6     7    1
    19     7     8    1
    20     3     9    1
    21     9    10    1
    22    10    11    1
    23    10    12    1
    24    12    13    2
    25    12     1   am
    26     8     3    1
    27    24    18   ar
@<TRIPOS>MOLECULE
*****
 25 27 0 0 0
SMALL
GASTEIGER

@<TRIPOS>ATOM
      1 N         142.4051  142.9425  161.7104 N.am    1  UNL1       -0.2752
      2 C         141.9747  142.0104  162.8040 C.3     1  UNL1        0.1206
      3 C         140.7426  142.3119  163.6048 C.3     1  UNL1        0.1141
      4 C         139.5106  142.6134  164.4055 C.3     1  UNL1        0.0463
      5 C         139.0802  141.6814  165.4991 C.3     1  UNL1        0.0746
      6 N         139.8818  140.4479  165.7920 N.3     1  UNL1       -0.2722
      7 C         141.1138  140.1463  164.9913 C.3     1  UNL1        0.0746
      8 C         141.5442  141.0784  163.8977 C.3     1  UNL1        0.0463
      9 O         139.9410  143.5454  163.3119 O.3     1  UNL1       -0.3501
     10 C         140.3715  144.4775  162.2182 C.3     1  UNL1        0.1909
     11 C         139.5699  145.7110  161.9252 C.3     1  UNL1        0.0420
     12 C         141.6035  144.1760  161.4175 C.2     1  UNL1        0.2529
     13 O         142.0340  145.1080  160.3238 O.2     1  UNL1       -0.2722
     14 C         144.9161  142.2834  161.6072 C.3     1  UNL1        0.0233
     15 C         143.6372  142.6410  160.9097 C.3     1  UNL1        0.0936
     16 C         139.4513  139.5158  166.8857 C.3     1  UNL1        0.0769
     17 C         139.4767  139.9730  168.3140 C.3     1  UNL1        0.0460
     18 C         140.5438  140.9189  168.7799 C.ar    1  UNL1        0.0089
     19 C         140.1785  142.3088  169.2094 C.ar    1  UNL1        0.0276
     20 C         141.2455  143.2546  169.6753 C.ar    1  UNL1        0.1400
     21 F         140.8803  144.6446  170.1048 F       1  UNL1       -0.2042
     22 C         142.6778  142.8104  169.7115 C.ar    1  UNL1        0.0319
     23 C         143.0430  141.4204  169.2820 C.ar    1  UNL1        0.0316
     24 C         141.9760  140.4747  168.8161 C.ar    1  UNL1        0.1363
     25 F         142.3413  139.0846  168.3866 F       1  UNL1       -0.2045
@<TRIPOS>BOND
     1    14    15    1
     2    15     1    1
     3     1     2    1
     4     2     3    1
     5     3     4    1
     6     4     5    1
     7     5     6    1
     8     6    16    1
     9    16    17    1
    10    17    18    1
    11    18    19   ar
    12    19    20   ar
    13    20    21    1
    14    20    22   ar
    15    22    23   ar
    16    23    24   ar
    17    24    25    1
    18     6     7    1
    19     7     8    1
    20     3     9    1
    21     9    10    1
    22    10    11    1
    23    10    12    1
    24    12    13    2
    25    12     1   am
    26     8     3    1
    27    24    18   ar
@<TRIPOS>MOLECULE
*****
 25 27 0 0 0
SMALL
GASTEIGER

@<TRIPOS>ATOM
      1 N         140.6004  141.8891  169.4315 N.am    1  UNL1       -0.2752
      2 C         140.5450  141.9437  167.9335 C.3     1  UNL1        0.1206
      3 C         141.7907  142.2256  167.1467 C.3     1  UNL1        0.1141
      4 C         143.0362  142.5076  166.3600 C.3     1  UNL1        0.0463
      5 C         142.9809  142.5621  164.8621 C.3     1  UNL1        0.0746
      6 N         141.6800  142.3347  164.1508 N.3     1  UNL1       -0.2722
      7 C         140.4344  142.0527  164.9375 C.3     1  UNL1        0.0746
      8 C         140.4897  141.9982  166.4355 C.3     1  UNL1        0.0463
      9 O         143.0916  142.4531  167.8580 O.3     1  UNL1       -0.3501
     10 C         143.1469  142.3986  169.3560 C.3     1  UNL1        0.1909
     11 C         144.4478  142.6261  170.0673 C.3     1  UNL1        0.0420
     12 C         141.9013  142.1166  170.1427 C.2     1  UNL1        0.2529
     13 O         141.9566  142.0621  171.6408 O.2     1  UNL1       -0.2722
     14 C         138.6238  140.3114  170.0265 C.3     1  UNL1        0.0233
     15 C         139.3547  141.6071  170.2183 C.3     1  UNL1        0.0936
     16 C         141.6247  142.3892  162.6528 C.3     1  UNL1        0.0769
     17 C         141.7403  141.1264  161.8516 C.3     1  UNL1        0.0460
     18 C         141.4460  139.8022  162.4919 C.ar    1  UNL1        0.0089
     19 C         140.0854  139.1868  162.3508 C.ar    1  UNL1        0.0276
     20 C         139.7912  137.8627  162.9912 C.ar    1  UNL1        0.1400
     21 F         138.4305  137.2472  162.8501 F       1  UNL1       -0.2042
     22 C         140.8576  137.1540  163.7726 C.ar    1  UNL1        0.0319
     23 C         142.2181  137.7695  163.9137 C.ar    1  UNL1        0.0316
     24 C         142.5124  139.0936  163.2734 C.ar    1  UNL1        0.1363
     25 F         143.8730  139.7091  163.4145 F       1  UNL1       -0.2045
@<TRIPOS>BOND
     1    14    15    1
     2    15     1    1
     3     1     2    1
     4     2     3    1
     5     3     4    1
     6     4     5    1
     7     5     6    1
     8     6    16    1
     9    16    17    1
    10    17    18    1
    11    18    19   ar
    12    19    20   ar
    13    20    21    1
    14    20    22   ar
    15    22    23   ar
    16    23    24   ar
    17    24    25    1
    18     6     7    1
    19     7     8    1
    20     3     9    1
    21     9    10    1
    22    10    11    1
    23    10    12    1
    24    12    13    2
    25    12     1   am
    26     8     3    1
    27    24    18   ar
@<TRIPOS>MOLECULE
*****
 25 27 0 0 0
SMALL
GASTEIGER

@<TRIPOS>ATOM
      1 N         139.4983  139.6889  167.1046 N.am    1  UNL1       -0.2752
      2 C         140.5211  140.0691  166.0753 C.3     1  UNL1        0.1206
      3 C         141.6387  141.0018  166.4374 C.3     1  UNL1        0.1141
      4 C         142.7563  141.9344  166.7996 C.3     1  UNL1        0.0463
      5 C         143.7791  142.3146  165.7703 C.3     1  UNL1        0.0746
      6 N         143.6843  141.7622  164.3790 N.3     1  UNL1       -0.2722
      7 C         142.5667  140.8296  164.0169 C.3     1  UNL1        0.0746
      8 C         141.5439  140.4494  165.0461 C.3     1  UNL1        0.0463
      9 O         141.7336  141.5542  167.8288 O.3     1  UNL1       -0.3501
     10 C         140.7108  141.1739  168.8581 C.3     1  UNL1        0.1909
     11 C         140.8056  141.7263  170.2494 C.3     1  UNL1        0.0420
     12 C         139.5931  140.2413  168.4959 C.2     1  UNL1        0.2529
     13 O         138.5703  139.8611  169.5252 O.2     1  UNL1       -0.2722
     14 C         138.5140  137.8520  165.5532 C.3     1  UNL1        0.0233
     15 C         138.3806  138.7563  166.7425 C.3     1  UNL1        0.0936
     16 C         144.7071  142.1424  163.3497 C.3     1  UNL1        0.0769
     17 C         144.4838  143.3425  162.4781 C.3     1  UNL1        0.0460
     18 C         143.1413  144.0113  162.4521 C.ar    1  UNL1        0.0089
     19 C         142.1370  143.6369  161.4027 C.ar    1  UNL1        0.0276
     20 C         140.7946  144.3056  161.3768 C.ar    1  UNL1        0.1400
     21 F         139.7903  143.9312  160.3274 F       1  UNL1       -0.2042
     22 C         140.4565  145.3488  162.4003 C.ar    1  UNL1        0.0319
     23 C         141.4607  145.7232  163.4497 C.ar    1  UNL1        0.0316
     24 C         142.8031  145.0544  163.4756 C.ar    1  UNL1        0.1363
     25 F         143.8075  145.4288  164.5250 F       1  UNL1       -0.2045
@<TRIPOS>BOND
     1    14    15    1
     2    15     1    1
     3     1     2    1
     4     2     3    1
     5     3     4    1
     6     4     5    1
     7     5     6    1
     8     6    16    1
     9    16    17    1
    10    17    18    1
    11    18    19   ar
    12    19    20   ar
    13    20    21    1
    14    20    22   ar
    15    22    23   ar
    16    23    24   ar
    17    24    25    1
    18     6     7    1
    19     7     8    1
    20     3     9    1
    21     9    10    1
    22    10    11    1
    23    10    12    1
    24    12    13    2
    25    12     1   am
    26     8     3    1
    27    24    18   ar
@<TRIPOS>MOLECULE
*****
 25 27 0 0 0
SMALL
GASTEIGER

@<TRIPOS>ATOM
      1 N         141.9478  140.7951  169.6890 N.am    1  UNL1       -0.2752
      2 C         141.6743  140.5007  168.2438 C.3     1  UNL1        0.1206
      3 C         140.9395  141.5004  167.4008 C.3     1  UNL1        0.1141
      4 C         140.2047  142.5001  166.5578 C.3     1  UNL1        0.0463
      5 C         139.9312  142.2057  165.1126 C.3     1  UNL1        0.0746
      6 N         140.3924  140.9116  164.5105 N.3     1  UNL1       -0.2722
      7 C         141.1272  139.9120  165.3535 C.3     1  UNL1        0.0746
      8 C         141.4007  140.2064  166.7986 C.3     1  UNL1        0.0463
      9 O         140.4782  142.7945  168.0029 O.3     1  UNL1       -0.3501
     10 C         140.7518  143.0889  169.4481 C.3     1  UNL1        0.1909
     11 C         140.2905  144.3829  170.0503 C.3     1  UNL1        0.0420
     12 C         141.4866  142.0892  170.2911 C.2     1  UNL1        0.2529
     13 O         141.7601  142.3835  171.7363 O.2     1  UNL1       -0.2722
     14 C         142.8306  138.3797  170.0588 C.3     1  UNL1        0.0233
     15 C         142.6827  139.7954  170.5320 C.3     1  UNL1        0.0936
     16 C         140.1189  140.6173  163.0653 C.3     1  UNL1        0.0769
     17 C         141.1419  140.9603  162.0233 C.3     1  UNL1        0.0460
     18 C         142.2147  141.9638  162.3272 C.ar    1  UNL1        0.0089
     19 C         143.5810  141.5001  162.7371 C.ar    1  UNL1        0.0276
     20 C         144.6537  142.5035  163.0410 C.ar    1  UNL1        0.1400
     21 F         146.0201  142.0398  163.4509 F       1  UNL1       -0.2042
     22 C         144.3600  143.9707  162.9350 C.ar    1  UNL1        0.0319
     23 C         142.9937  144.4344  162.5251 C.ar    1  UNL1        0.0316
     24 C         141.9210  143.4309  162.2212 C.ar    1  UNL1        0.1363
     25 F         140.5546  143.8946  161.8113 F       1  UNL1       -0.2045
@<TRIPOS>BOND
     1    14    15    1
     2    15     1    1
     3     1     2    1
     4     2     3    1
     5     3     4    1
     6     4     5    1
     7     5     6    1
     8     6    16    1
     9    16    17    1
    10    17    18    1
    11    18    19   ar
    12    19    20   ar
    13    20    21    1
    14    20    22   ar
    15    22    23   ar
    16    23    24   ar
    17    24    25    1
    18     6     7    1
    19     7     8    1
    20     3     9    1
    21     9    10    1
    22    10    11    1
    23    10    12    1
    24    12    13    2
    25    12     1   am
    26     8     3    1
    27    24    18   ar
