@<TRIPOS>MOLECULE
*****
 28 28 0 0 0
SMALL
GASTEIGER

@<TRIPOS>ATOM
      1 C         138.2310  141.1471  163.6442 C.3     1  UNL1        0.1328
      2 O         136.7807  141.1880  163.2639 O.3     1  UNL1       -0.3801
      3 H         136.6985  141.4301  162.3281 H       1  UNL1        0.2108
      4 C         138.6290  140.7954  165.0470 C.ar    1  UNL1        0.0043
      5 C         138.0595  139.5730  165.7040 C.ar    1  UNL1       -0.0006
      6 C         138.4574  139.2213  167.1068 C.ar    1  UNL1        0.0156
      7 C         139.4248  140.0918  167.8527 C.ar    1  UNL1        0.0644
      8 C         139.9942  141.3141  167.1957 C.ar    1  UNL1        0.0156
      9 C         139.5963  141.6659  165.7929 C.ar    1  UNL1       -0.0006
     10 N         139.8227  139.7401  169.2555 N.pl3   1  UNL1       -0.2187
     11 H         139.7710  138.8060  169.5623 H       1  UNL1        0.1734
     12 S         140.2993  140.8114  170.1909 S.O2    1  UNL1        0.0558
     13 C         140.7760  141.8828  171.1263 C.3     1  UNL1        0.1996
     14 O         141.7186  140.3896  169.9508 O.2     1  UNL1       -0.1544
     15 O         138.8800  141.2332  170.4310 O.2     1  UNL1       -0.1544
     16 C         139.2835  141.4581  162.6217 C.3     1  UNL1        0.0352
     17 C         140.4006  140.4876  162.3762 C.3     1  UNL1        0.0202
     18 C         140.0950  139.0422  162.1165 C.3     1  UNL1        0.0722
     19 N         141.1902  138.0197  162.1866 N.3     1  UNL1       -0.2727
     20 C         142.1677  137.8890  161.0563 C.3     1  UNL1        0.0721
     21 C         143.6415  137.9489  161.3286 C.3     1  UNL1        0.0188
     22 C         141.3080  137.1278  163.3869 C.3     1  UNL1        0.0721
     23 C         140.9262  137.6417  164.7434 C.3     1  UNL1        0.0173
     24 C         141.8382  138.5830  165.4729 C.3     1  UNL1        0.0014
     25 C         143.2837  138.6793  165.0837 C.3     1  UNL1        0.0000
     26 C         143.8046  139.9281  164.4366 C.3     1  UNL1        0.0000
     27 C         143.4049  142.0061  165.9441 C.3     1  UNL1        0.0000
     28 C         143.1237  141.2415  164.6846 C.3     1  UNL1        0.0000
@<TRIPOS>BOND
     1    27    28    1
     2    28    26    1
     3    26    25    1
     4    25    24    1
     5    24    23    1
     6    23    22    1
     7    22    19    1
     8    19    20    1
     9    20    21    1
    10    19    18    1
    11    18    17    1
    12    17    16    1
    13    16     1    1
    14     1     2    1
    15     1     4    1
    16     4     5   ar
    17     5     6   ar
    18     6     7   ar
    19     7    10    1
    20    10    12    1
    21    12    13    1
    22    12    14    2
    23    12    15    2
    24     7     8   ar
    25     8     9   ar
    26     9     4   ar
    27     2     3    1
    28    10    11    1
@<TRIPOS>MOLECULE
*****
 28 28 0 0 0
SMALL
GASTEIGER

@<TRIPOS>ATOM
      1 C         138.3421  141.1527  163.7290 C.3     1  UNL1        0.1328
      2 O         136.9252  140.9812  163.2677 O.3     1  UNL1       -0.3801
      3 H         136.8505  141.2610  162.3420 H       1  UNL1        0.2108
      4 C         138.7230  140.7885  165.1334 C.ar    1  UNL1        0.0043
      5 C         138.1304  139.5715  165.7795 C.ar    1  UNL1       -0.0006
      6 C         138.5112  139.2072  167.1839 C.ar    1  UNL1        0.0156
      7 C         139.4847  140.0601  167.9422 C.ar    1  UNL1        0.0644
      8 C         140.0773  141.2771  167.2961 C.ar    1  UNL1        0.0156
      9 C         139.6964  141.6414  165.8917 C.ar    1  UNL1       -0.0006
     10 N         139.8655  139.6959  169.3466 N.pl3   1  UNL1       -0.2187
     11 H         139.7655  138.7675  169.6587 H       1  UNL1        0.1734
     12 S         140.3987  140.7460  170.2754 S.O2    1  UNL1        0.0558
     13 C         140.9319  141.7963  171.2043 C.3     1  UNL1        0.1996
     14 O         139.0049  141.2505  170.5052 O.2     1  UNL1       -0.1544
     15 O         141.7925  140.2416  170.0456 O.2     1  UNL1       -0.1544
     16 C         139.3782  141.6885  162.7860 C.3     1  UNL1        0.0352
     17 C         140.7320  141.0464  162.7155 C.3     1  UNL1        0.0202
     18 C         141.9646  141.8993  162.6591 C.3     1  UNL1        0.0722
     19 N         142.5861  142.4040  163.9276 N.3     1  UNL1       -0.2727
     20 C         142.4470  143.8482  164.3081 C.3     1  UNL1        0.0721
     21 C         141.1677  144.5785  164.0250 C.3     1  UNL1        0.0188
     22 C         143.3466  141.4643  164.8158 C.3     1  UNL1        0.0721
     23 C         143.8887  140.1808  164.2602 C.3     1  UNL1        0.0173
     24 C         144.0922  138.9998  165.1623 C.3     1  UNL1        0.0014
     25 C         142.9333  138.4310  165.9261 C.3     1  UNL1        0.0000
     26 C         141.5735  138.3766  165.2954 C.3     1  UNL1        0.0000
     27 C         140.1184  137.4885  163.3347 C.3     1  UNL1        0.0000
     28 C         141.2505  137.3011  164.3008 C.3     1  UNL1        0.0000
@<TRIPOS>BOND
     1    27    28    1
     2    28    26    1
     3    26    25    1
     4    25    24    1
     5    24    23    1
     6    23    22    1
     7    22    19    1
     8    19    20    1
     9    20    21    1
    10    19    18    1
    11    18    17    1
    12    17    16    1
    13    16     1    1
    14     1     2    1
    15     1     4    1
    16     4     5   ar
    17     5     6   ar
    18     6     7   ar
    19     7    10    1
    20    10    12    1
    21    12    13    1
    22    12    14    2
    23    12    15    2
    24     7     8   ar
    25     8     9   ar
    26     9     4   ar
    27     2     3    1
    28    10    11    1
@<TRIPOS>MOLECULE
*****
 28 28 0 0 0
SMALL
GASTEIGER

@<TRIPOS>ATOM
      1 C         138.1973  141.2649  163.6561 C.3     1  UNL1        0.1328
      2 O         136.7389  141.3105  163.3080 O.3     1  UNL1       -0.3801
      3 H         136.6362  141.5693  162.3788 H       1  UNL1        0.2108
      4 C         138.6258  140.8885  165.0434 C.ar    1  UNL1        0.0043
      5 C         139.6023  141.7510  165.7867 C.ar    1  UNL1       -0.0006
      6 C         140.0309  141.3746  167.1740 C.ar    1  UNL1        0.0156
      7 C         139.4830  140.1356  167.8180 C.ar    1  UNL1        0.0644
      8 C         138.5066  139.2731  167.0747 C.ar    1  UNL1        0.0156
      9 C         138.0780  139.6495  165.6874 C.ar    1  UNL1       -0.0006
     10 N         139.9116  139.7592  169.2053 N.pl3   1  UNL1       -0.2187
     11 H         139.9049  138.8148  169.4833 H       1  UNL1        0.1734
     12 S         140.3504  140.8216  170.1689 S.O2    1  UNL1        0.0558
     13 C         140.7892  141.8841  171.1326 C.3     1  UNL1        0.1996
     14 O         138.9179  141.1966  170.4078 O.2     1  UNL1       -0.1544
     15 O         141.7830  140.4466  169.9300 O.2     1  UNL1       -0.1544
     16 C         139.2270  141.5957  162.6168 C.3     1  UNL1        0.0352
     17 C         140.4116  140.6964  162.4217 C.3     1  UNL1        0.0202
     18 C         140.2122  139.2191  162.2546 C.3     1  UNL1        0.0722
     19 N         141.3662  138.2801  162.4464 N.3     1  UNL1       -0.2727
     20 C         141.2593  137.1512  163.4282 C.3     1  UNL1        0.0721
     21 C         140.2960  137.2426  164.5743 C.3     1  UNL1        0.0188
     22 C         142.6270  138.4702  161.6562 C.3     1  UNL1        0.0721
     23 C         143.9375  138.6432  162.3652 C.3     1  UNL1        0.0173
     24 C         144.3215  139.9850  162.9149 C.3     1  UNL1        0.0014
     25 C         144.3549  140.2063  164.3981 C.3     1  UNL1        0.0000
     26 C         143.0768  140.2224  165.1830 C.3     1  UNL1        0.0000
     27 C         143.8193  138.0840  166.4583 C.3     1  UNL1        0.0000
     28 C         142.8540  139.2174  166.2740 C.3     1  UNL1        0.0000
@<TRIPOS>BOND
     1    27    28    1
     2    28    26    1
     3    26    25    1
     4    25    24    1
     5    24    23    1
     6    23    22    1
     7    22    19    1
     8    19    20    1
     9    20    21    1
    10    19    18    1
    11    18    17    1
    12    17    16    1
    13    16     1    1
    14     1     2    1
    15     1     4    1
    16     4     5   ar
    17     5     6   ar
    18     6     7   ar
    19     7    10    1
    20    10    12    1
    21    12    13    1
    22    12    14    2
    23    12    15    2
    24     7     8   ar
    25     8     9   ar
    26     9     4   ar
    27     2     3    1
    28    10    11    1
@<TRIPOS>MOLECULE
*****
 28 28 0 0 0
SMALL
GASTEIGER

@<TRIPOS>ATOM
      1 C         138.8859  139.1799  164.6264 C.3     1  UNL1        0.1328
      2 O         138.7010  137.7950  164.0807 O.3     1  UNL1       -0.3801
      3 H         138.0218  137.8083  163.3883 H       1  UNL1        0.2108
      4 C         139.8865  139.4295  165.7157 C.ar    1  UNL1        0.0043
      5 C         139.4229  139.8601  167.0756 C.ar    1  UNL1       -0.0006
      6 C         140.4235  140.1097  168.1649 C.ar    1  UNL1        0.0156
      7 C         141.8877  139.9286  167.8942 C.ar    1  UNL1        0.0644
      8 C         142.3513  139.4980  166.5342 C.ar    1  UNL1        0.0156
      9 C         141.3507  139.2484  165.4450 C.ar    1  UNL1       -0.0006
     10 N         142.8883  140.1782  168.9835 N.pl3   1  UNL1       -0.2187
     11 H         143.5381  139.4790  169.2246 H       1  UNL1        0.1734
     12 S         142.8989  141.4930  169.7053 S.O2    1  UNL1        0.0558
     13 C         142.9095  142.8079  170.4272 C.3     1  UNL1        0.1996
     14 O         142.4505  140.8070  170.9615 O.2     1  UNL1       -0.1544
     15 O         143.3473  142.1791  168.4490 O.2     1  UNL1       -0.1544
     16 C         138.0702  140.3153  164.0828 C.3     1  UNL1        0.0352
     17 C         138.5768  141.1120  162.9172 C.3     1  UNL1        0.0202
     18 C         137.8731  142.3718  162.5073 C.3     1  UNL1        0.0722
     19 N         138.4750  143.7068  162.8320 N.3     1  UNL1       -0.2727
     20 C         139.4424  144.3449  161.8798 C.3     1  UNL1        0.0721
     21 C         139.6543  145.8296  161.9086 C.3     1  UNL1        0.0188
     22 C         138.1096  144.4036  164.1092 C.3     1  UNL1        0.0721
     23 C         139.1080  144.4973  165.2246 C.3     1  UNL1        0.0173
     24 C         139.6737  143.2478  165.8318 C.3     1  UNL1        0.0014
     25 C         141.1334  142.9359  165.6829 C.3     1  UNL1        0.0000
     26 C         141.7370  142.8062  164.3159 C.3     1  UNL1        0.0000
     27 C         142.6989  145.1751  163.8545 C.3     1  UNL1        0.0000
     28 C         142.8826  143.6876  163.9151 C.3     1  UNL1        0.0000
@<TRIPOS>BOND
     1    27    28    1
     2    28    26    1
     3    26    25    1
     4    25    24    1
     5    24    23    1
     6    23    22    1
     7    22    19    1
     8    19    20    1
     9    20    21    1
    10    19    18    1
    11    18    17    1
    12    17    16    1
    13    16     1    1
    14     1     2    1
    15     1     4    1
    16     4     5   ar
    17     5     6   ar
    18     6     7   ar
    19     7    10    1
    20    10    12    1
    21    12    13    1
    22    12    14    2
    23    12    15    2
    24     7     8   ar
    25     8     9   ar
    26     9     4   ar
    27     2     3    1
    28    10    11    1
@<TRIPOS>MOLECULE
*****
 28 28 0 0 0
SMALL
GASTEIGER

@<TRIPOS>ATOM
      1 C         145.1900  141.4859  163.5838 C.3     1  UNL1        0.1328
      2 O         146.5551  141.8377  163.0713 O.3     1  UNL1       -0.3801
      3 H         147.1592  141.0942  163.2237 H       1  UNL1        0.2108
      4 C         144.0674  142.4738  163.4666 C.ar    1  UNL1        0.0043
      5 C         143.0561  142.3330  162.3677 C.ar    1  UNL1       -0.0006
      6 C         141.9335  143.3209  162.2505 C.ar    1  UNL1        0.0156
      7 C         141.8220  144.4495  163.2322 C.ar    1  UNL1        0.0644
      8 C         142.8332  144.5902  164.3311 C.ar    1  UNL1        0.0156
      9 C         143.9559  143.6024  164.4483 C.ar    1  UNL1       -0.0006
     10 N         140.6993  145.4373  163.1150 N.pl3   1  UNL1       -0.2187
     11 H         140.8950  146.4005  163.0587 H       1  UNL1        0.1734
     12 S         139.2785  144.9576  163.0836 S.O2    1  UNL1        0.0558
     13 C         137.8575  144.4779  163.0522 C.3     1  UNL1        0.1996
     14 O         139.3945  144.5201  164.5136 O.2     1  UNL1       -0.1544
     15 O         139.1624  145.3952  161.6535 O.2     1  UNL1       -0.1544
     16 C         144.9476  140.1463  164.2136 C.3     1  UNL1        0.0352
     17 C         143.8588  139.2574  163.6899 C.3     1  UNL1        0.0202
     18 C         142.7146  138.8696  164.5791 C.3     1  UNL1        0.0722
     19 N         142.4828  139.6040  165.8663 N.3     1  UNL1       -0.2727
     20 C         142.9423  139.0073  167.1635 C.3     1  UNL1        0.0721
     21 C         142.4563  139.5749  168.4641 C.3     1  UNL1        0.0188
     22 C         141.7914  140.9352  165.8563 C.3     1  UNL1        0.0721
     23 C         140.6282  141.1693  164.9387 C.3     1  UNL1        0.0173
     24 C         139.2298  140.9247  165.4230 C.3     1  UNL1        0.0014
     25 C         138.9597  139.8314  166.4139 C.3     1  UNL1        0.0000
     26 C         138.3940  138.5219  165.9502 C.3     1  UNL1        0.0000
     27 C         139.0810  137.7681  163.5607 C.3     1  UNL1        0.0000
     28 C         139.2002  137.6333  165.0499 C.3     1  UNL1        0.0000
@<TRIPOS>BOND
     1    27    28    1
     2    28    26    1
     3    26    25    1
     4    25    24    1
     5    24    23    1
     6    23    22    1
     7    22    19    1
     8    19    20    1
     9    20    21    1
    10    19    18    1
    11    18    17    1
    12    17    16    1
    13    16     1    1
    14     1     2    1
    15     1     4    1
    16     4     5   ar
    17     5     6   ar
    18     6     7   ar
    19     7    10    1
    20    10    12    1
    21    12    13    1
    22    12    14    2
    23    12    15    2
    24     7     8   ar
    25     8     9   ar
    26     9     4   ar
    27     2     3    1
    28    10    11    1
@<TRIPOS>MOLECULE
*****
 28 28 0 0 0
SMALL
GASTEIGER

@<TRIPOS>ATOM
      1 C         138.1403  141.5988  163.7654 C.3     1  UNL1        0.1328
      2 O         136.7431  141.2706  163.3296 O.3     1  UNL1       -0.3801
      3 H         136.5824  141.6456  162.4496 H       1  UNL1        0.2108
      4 C         138.6394  141.1297  165.0999 C.ar    1  UNL1        0.0043
      5 C         138.1197  139.8516  165.6881 C.ar    1  UNL1       -0.0006
      6 C         138.6188  139.3825  167.0226 C.ar    1  UNL1        0.0156
      7 C         139.6376  140.1917  167.7689 C.ar    1  UNL1        0.0644
      8 C         140.1574  141.4699  167.1807 C.ar    1  UNL1        0.0156
      9 C         139.6583  141.9389  165.8462 C.ar    1  UNL1       -0.0006
     10 N         140.1367  139.7227  169.1034 N.pl3   1  UNL1       -0.2187
     11 H         140.2311  138.7593  169.2828 H       1  UNL1        0.1734
     12 S         140.4921  140.7215  170.1646 S.O2    1  UNL1        0.0558
     13 C         140.8475  141.7204  171.2258 C.3     1  UNL1        0.1996
     14 O         139.0375  141.0305  170.3609 O.2     1  UNL1       -0.1544
     15 O         141.9467  140.4125  169.9683 O.2     1  UNL1       -0.1544
     16 C         139.0385  142.3960  162.8667 C.3     1  UNL1        0.0352
     17 C         140.0234  141.6957  161.9780 C.3     1  UNL1        0.0202
     18 C         139.6106  141.2483  160.6071 C.3     1  UNL1        0.0722
     19 N         139.2976  139.8037  160.3522 N.3     1  UNL1       -0.2727
     20 C         140.2497  138.9586  159.5588 C.3     1  UNL1        0.0721
     21 C         139.8158  138.3666  158.2507 C.3     1  UNL1        0.0188
     22 C         138.0324  139.2041  160.8907 C.3     1  UNL1        0.0721
     23 C         138.0889  137.9613  161.7287 C.3     1  UNL1        0.0173
     24 C         138.8277  137.9699  163.0341 C.3     1  UNL1        0.0014
     25 C         140.2589  137.5238  163.0888 C.3     1  UNL1        0.0000
     26 C         140.8996  137.2196  164.4105 C.3     1  UNL1        0.0000
     27 C         142.0247  139.5615  164.4080 C.3     1  UNL1        0.0000
     28 C         141.7408  138.2573  165.0927 C.3     1  UNL1        0.0000
@<TRIPOS>BOND
     1    27    28    1
     2    28    26    1
     3    26    25    1
     4    25    24    1
     5    24    23    1
     6    23    22    1
     7    22    19    1
     8    19    20    1
     9    20    21    1
    10    19    18    1
    11    18    17    1
    12    17    16    1
    13    16     1    1
    14     1     2    1
    15     1     4    1
    16     4     5   ar
    17     5     6   ar
    18     6     7   ar
    19     7    10    1
    20    10    12    1
    21    12    13    1
    22    12    14    2
    23    12    15    2
    24     7     8   ar
    25     8     9   ar
    26     9     4   ar
    27     2     3    1
    28    10    11    1
@<TRIPOS>MOLECULE
*****
 28 28 0 0 0
SMALL
GASTEIGER

@<TRIPOS>ATOM
      1 C         143.9265  142.2373  163.6140 C.3     1  UNL1        0.1328
      2 O         145.3083  142.1521  163.0369 O.3     1  UNL1       -0.3801
      3 H         145.3560  142.6899  162.2311 H       1  UNL1        0.2108
      4 C         143.5909  141.4898  164.8704 C.ar    1  UNL1        0.0043
      5 C         143.6145  139.9901  164.8799 C.ar    1  UNL1       -0.0006
      6 C         143.2790  139.2426  166.1363 C.ar    1  UNL1        0.0156
      7 C         142.9199  139.9949  167.3834 C.ar    1  UNL1        0.0644
      8 C         142.8963  141.4946  167.3739 C.ar    1  UNL1        0.0156
      9 C         143.2318  142.2421  166.1175 C.ar    1  UNL1       -0.0006
     10 N         142.5844  139.2474  168.6398 N.pl3   1  UNL1       -0.2187
     11 H         142.7402  138.2766  168.6916 H       1  UNL1        0.1734
     12 S         142.0115  139.9788  169.8174 S.O2    1  UNL1        0.0558
     13 C         141.4385  140.7104  170.9950 C.3     1  UNL1        0.1996
     14 O         140.6374  139.8475  169.2304 O.2     1  UNL1       -0.1544
     15 O         143.3856  140.1102  170.4043 O.2     1  UNL1       -0.1544
     16 C         142.8801  143.0700  162.9346 C.3     1  UNL1        0.0352
     17 C         142.9419  144.5665  163.0177 C.3     1  UNL1        0.0202
     18 C         141.8944  145.3190  163.7837 C.3     1  UNL1        0.0722
     19 N         140.4967  144.7814  163.8693 N.3     1  UNL1       -0.2727
     20 C         139.5250  145.0378  162.7557 C.3     1  UNL1        0.0721
     21 C         139.7242  146.2104  161.8417 C.3     1  UNL1        0.0188
     22 C         140.0707  143.9872  165.0684 C.3     1  UNL1        0.0721
     23 C         139.2034  142.7755  164.8961 C.3     1  UNL1        0.0173
     24 C         139.8269  141.4412  164.6123 C.3     1  UNL1        0.0014
     25 C         139.7681  140.3517  165.6416 C.3     1  UNL1        0.0000
     26 C         139.6599  138.9187  165.2117 C.3     1  UNL1        0.0000
     27 C         137.7098  138.5568  166.8899 C.3     1  UNL1        0.0000
     28 C         138.5907  138.0405  165.7909 C.3     1  UNL1        0.0000
@<TRIPOS>BOND
     1    27    28    1
     2    28    26    1
     3    26    25    1
     4    25    24    1
     5    24    23    1
     6    23    22    1
     7    22    19    1
     8    19    20    1
     9    20    21    1
    10    19    18    1
    11    18    17    1
    12    17    16    1
    13    16     1    1
    14     1     2    1
    15     1     4    1
    16     4     5   ar
    17     5     6   ar
    18     6     7   ar
    19     7    10    1
    20    10    12    1
    21    12    13    1
    22    12    14    2
    23    12    15    2
    24     7     8   ar
    25     8     9   ar
    26     9     4   ar
    27     2     3    1
    28    10    11    1
@<TRIPOS>MOLECULE
*****
 28 28 0 0 0
SMALL
GASTEIGER

@<TRIPOS>ATOM
      1 C         138.7699  141.5032  164.3519 C.3     1  UNL1        0.1328
      2 O         137.4375  140.8420  164.1584 O.3     1  UNL1       -0.3801
      3 H         137.1667  140.9256  163.2308 H       1  UNL1        0.2108
      4 C         139.4128  141.5126  165.7071 C.ar    1  UNL1        0.0043
      5 C         140.0011  142.7814  166.2494 C.ar    1  UNL1       -0.0006
      6 C         140.6440  142.7907  167.6046 C.ar    1  UNL1        0.0156
      7 C         140.6986  141.5313  168.4175 C.ar    1  UNL1        0.0644
      8 C         140.1103  140.2626  167.8752 C.ar    1  UNL1        0.0156
      9 C         139.4674  140.2532  166.5200 C.ar    1  UNL1       -0.0006
     10 N         141.3416  141.5407  169.7727 N.pl3   1  UNL1       -0.2187
     11 H         140.8341  141.2384  170.5603 H       1  UNL1        0.1734
     12 S         142.7576  142.0106  169.9278 S.O2    1  UNL1        0.0558
     13 C         144.1737  142.4804  170.0829 C.3     1  UNL1        0.1996
     14 O         143.2487  140.7330  169.3142 O.2     1  UNL1       -0.1544
     15 O         142.2664  143.2881  170.5414 O.2     1  UNL1       -0.1544
     16 C         139.4593  142.1551  163.1902 C.3     1  UNL1        0.0352
     17 C         140.8453  141.7297  162.8056 C.3     1  UNL1        0.0202
     18 C         141.7208  142.6543  162.0126 C.3     1  UNL1        0.0722
     19 N         141.6520  144.1347  162.2441 N.3     1  UNL1       -0.2727
     20 C         140.8237  144.9977  161.3391 C.3     1  UNL1        0.0721
     21 C         139.9797  146.0956  161.9155 C.3     1  UNL1        0.0188
     22 C         142.4116  144.7522  163.3808 C.3     1  UNL1        0.0721
     23 C         143.6350  144.0734  163.9217 C.3     1  UNL1        0.0173
     24 C         143.5375  143.2208  165.1520 C.3     1  UNL1        0.0014
     25 C         143.9475  141.7789  165.0996 C.3     1  UNL1        0.0000
     26 C         143.0962  140.7328  165.7560 C.3     1  UNL1        0.0000
     27 C         143.6712  138.2465  166.2436 C.3     1  UNL1        0.0000
     28 C         143.1787  139.3055  165.3022 C.3     1  UNL1        0.0000
@<TRIPOS>BOND
     1    27    28    1
     2    28    26    1
     3    26    25    1
     4    25    24    1
     5    24    23    1
     6    23    22    1
     7    22    19    1
     8    19    20    1
     9    20    21    1
    10    19    18    1
    11    18    17    1
    12    17    16    1
    13    16     1    1
    14     1     2    1
    15     1     4    1
    16     4     5   ar
    17     5     6   ar
    18     6     7   ar
    19     7    10    1
    20    10    12    1
    21    12    13    1
    22    12    14    2
    23    12    15    2
    24     7     8   ar
    25     8     9   ar
    26     9     4   ar
    27     2     3    1
    28    10    11    1
@<TRIPOS>MOLECULE
*****
 28 28 0 0 0
SMALL
GASTEIGER

@<TRIPOS>ATOM
      1 C         141.1617  139.8885  168.1047 C.3     1  UNL1        0.1328
      2 O         140.6669  139.6391  169.4985 O.3     1  UNL1       -0.3801
      3 H         141.4133  139.3946  170.0677 H       1  UNL1        0.2108
      4 C         140.1974  140.2841  167.0260 C.ar    1  UNL1        0.0043
      5 C         139.0630  139.3724  166.6629 C.ar    1  UNL1       -0.0006
      6 C         138.0986  139.7680  165.5842 C.ar    1  UNL1        0.0156
      7 C         138.2687  141.0753  164.8687 C.ar    1  UNL1        0.0644
      8 C         139.4031  141.9870  165.2318 C.ar    1  UNL1        0.0156
      9 C         140.3674  141.5914  166.3105 C.ar    1  UNL1       -0.0006
     10 N         137.3044  141.4709  163.7900 N.pl3   1  UNL1       -0.2187
     11 H         136.3378  141.3372  163.9205 H       1  UNL1        0.1734
     12 S         137.8127  142.0704  162.5124 S.O2    1  UNL1        0.0558
     13 C         138.3211  142.6698  161.2348 C.3     1  UNL1        0.1996
     14 O         138.1276  140.6985  161.9940 O.2     1  UNL1       -0.1544
     15 O         137.4979  143.4423  163.0308 O.2     1  UNL1       -0.1544
     16 C         142.6209  139.7423  167.7895 C.3     1  UNL1        0.0352
     17 C         143.0870  138.6343  166.8922 C.3     1  UNL1        0.0202
     18 C         144.0085  138.9340  165.7471 C.3     1  UNL1        0.0722
     19 N         143.4614  139.5120  164.4756 N.3     1  UNL1       -0.2727
     20 C         142.4798  138.7274  163.6566 C.3     1  UNL1        0.0721
     21 C         141.1823  139.3533  163.2386 C.3     1  UNL1        0.0188
     22 C         143.8960  140.8745  164.0232 C.3     1  UNL1        0.0721
     23 C         143.6303  142.0717  164.8871 C.3     1  UNL1        0.0173
     24 C         144.5247  143.2727  164.7999 C.3     1  UNL1        0.0014
     25 C         143.9424  144.6208  164.4936 C.3     1  UNL1        0.0000
     26 C         142.8944  144.7609  163.4297 C.3     1  UNL1        0.0000
     27 C         140.4604  145.3923  162.7759 C.3     1  UNL1        0.0000
     28 C         141.4601  144.9747  163.8134 C.3     1  UNL1        0.0000
@<TRIPOS>BOND
     1    27    28    1
     2    28    26    1
     3    26    25    1
     4    25    24    1
     5    24    23    1
     6    23    22    1
     7    22    19    1
     8    19    20    1
     9    20    21    1
    10    19    18    1
    11    18    17    1
    12    17    16    1
    13    16     1    1
    14     1     2    1
    15     1     4    1
    16     4     5   ar
    17     5     6   ar
    18     6     7   ar
    19     7    10    1
    20    10    12    1
    21    12    13    1
    22    12    14    2
    23    12    15    2
    24     7     8   ar
    25     8     9   ar
    26     9     4   ar
    27     2     3    1
    28    10    11    1
