@<TRIPOS>MOLECULE
*****
 25 27 0 0 0
SMALL
GASTEIGER

@<TRIPOS>ATOM
      1 N         138.0872  140.8321  164.3970 N.ar    1  UNL1       -0.2244
      2 C         138.1923  142.3282  164.4252 C.ar    1  UNL1        0.1329
      3 C         137.7391  142.8499  163.0937 C.ar    1  UNL1        0.1709
      4 N         137.3540  141.6762  162.2427 N.ar    1  UNL1       -0.1138
      5 N         137.5691  140.4292  163.0481 N.ar    1  UNL1       -0.0622
      6 N         137.6813  144.2920  162.6851 N.pl3   1  UNL1       -0.3142
      7 H         136.8186  144.7016  162.4460 H       1  UNL1        0.1483
      8 C         138.9378  145.1099  162.6407 C.3     1  UNL1        0.1058
      9 C         140.1843  144.5373  162.0338 C.3     1  UNL1        0.0936
     10 N         141.3179  144.1050  162.9160 N.3     1  UNL1       -0.2709
     11 C         142.3219  145.1116  163.3944 C.3     1  UNL1        0.0778
     12 C         143.4554  144.6793  164.2766 C.3     1  UNL1        0.0839
     13 C         143.5849  143.2404  164.6804 C.3     1  UNL1        0.2666
     14 F         144.1286  142.0018  165.3286 F       1  UNL1       -0.2042
     15 F         144.7777  143.8168  165.3839 F       1  UNL1       -0.2042
     16 C         142.5808  142.2339  164.2020 C.3     1  UNL1        0.0839
     17 C         141.4473  142.6662  163.3198 C.3     1  UNL1        0.0778
     18 C         138.4384  139.9023  165.5204 C.3     1  UNL1        0.1556
     19 F         144.1487  138.2847  166.4017 F       1  UNL1       -0.2042
     20 C         142.7211  138.6891  166.1814 C.ar    1  UNL1        0.1401
     21 C         141.9299  138.0709  165.0670 C.ar    1  UNL1        0.0294
     22 C         140.5023  138.4753  164.8467 C.ar    1  UNL1       -0.0000
     23 C         139.8660  139.4979  165.7407 C.ar    1  UNL1        0.0023
     24 C         140.6572  140.1161  166.8550 C.ar    1  UNL1       -0.0000
     25 C         142.0847  139.7117  167.0753 C.ar    1  UNL1        0.0294
@<TRIPOS>BOND
     1    19    20    1
     2    20    21   ar
     3    21    22   ar
     4    22    23   ar
     5    23    18    1
     6    18     1    1
     7     1     2   ar
     8     2     3   ar
     9     3     6    1
    10     6     8    1
    11     8     9    1
    12     9    10    1
    13    10    11    1
    14    11    12    1
    15    12    13    1
    16    13    14    1
    17    13    15    1
    18    13    16    1
    19    16    17    1
    20     3     4   ar
    21     4     5   ar
    22    23    24   ar
    23    24    25   ar
    24    25    20   ar
    25     5     1   ar
    26    17    10    1
    27     6     7    1
@<TRIPOS>MOLECULE
*****
 25 27 0 0 0
SMALL
GASTEIGER

@<TRIPOS>ATOM
      1 N         138.3952  143.4283  163.6406 N.ar    1  UNL1       -0.2244
      2 C         139.7689  143.8869  164.0314 C.ar    1  UNL1        0.1329
      3 C         140.1297  145.0589  163.1675 C.ar    1  UNL1        0.1709
      4 N         138.9789  145.3246  162.2426 N.ar    1  UNL1       -0.1138
      5 N         137.9070  144.3169  162.5350 N.ar    1  UNL1       -0.0622
      6 N         141.4153  145.8298  163.2192 N.pl3   1  UNL1       -0.3142
      7 H         141.4111  146.8041  163.0779 H       1  UNL1        0.1483
      8 C         142.7074  145.1164  163.4864 C.3     1  UNL1        0.1058
      9 C         143.1652  144.0241  162.5659 C.3     1  UNL1        0.0936
     10 N         143.5264  142.6780  163.1207 N.3     1  UNL1       -0.2709
     11 C         144.9597  142.3485  163.4160 C.3     1  UNL1        0.0778
     12 C         145.3209  141.0025  163.9708 C.3     1  UNL1        0.0839
     13 C         144.2487  139.9859  164.2302 C.3     1  UNL1        0.2666
     14 F         143.5957  138.6998  164.6418 F       1  UNL1       -0.2042
     15 F         145.4552  139.2098  164.6684 F       1  UNL1       -0.2042
     16 C         142.8155  140.3154  163.9348 C.3     1  UNL1        0.0839
     17 C         142.4543  141.6615  163.3801 C.3     1  UNL1        0.0778
     18 C         137.6421  142.2824  164.2484 C.3     1  UNL1        0.1556
     19 F         140.3472  136.9811  165.0094 F       1  UNL1       -0.2042
     20 C         139.6709  138.3064  164.8192 C.ar    1  UNL1        0.1401
     21 C         138.9347  138.5967  163.5450 C.ar    1  UNL1        0.0294
     22 C         138.2584  139.9220  163.3547 C.ar    1  UNL1       -0.0000
     23 C         138.3184  140.9570  164.4387 C.ar    1  UNL1        0.0023
     24 C         139.0546  140.6668  165.7129 C.ar    1  UNL1       -0.0000
     25 C         139.7309  139.3415  165.9031 C.ar    1  UNL1        0.0294
@<TRIPOS>BOND
     1    19    20    1
     2    20    21   ar
     3    21    22   ar
     4    22    23   ar
     5    23    18    1
     6    18     1    1
     7     1     2   ar
     8     2     3   ar
     9     3     6    1
    10     6     8    1
    11     8     9    1
    12     9    10    1
    13    10    11    1
    14    11    12    1
    15    12    13    1
    16    13    14    1
    17    13    15    1
    18    13    16    1
    19    16    17    1
    20     3     4   ar
    21     4     5   ar
    22    23    24   ar
    23    24    25   ar
    24    25    20   ar
    25     5     1   ar
    26    17    10    1
    27     6     7    1
@<TRIPOS>MOLECULE
*****
 25 27 0 0 0
SMALL
GASTEIGER

@<TRIPOS>ATOM
      1 N         138.9157  143.6059  163.1197 N.ar    1  UNL1       -0.2244
      2 C         138.5225  142.1740  163.3322 C.ar    1  UNL1        0.1329
      3 C         137.7971  141.7055  162.1055 C.ar    1  UNL1        0.1709
      4 N         137.7420  142.8479  161.1350 N.ar    1  UNL1       -0.1138
      5 N         138.4333  144.0224  161.7617 N.ar    1  UNL1       -0.0622
      6 N         137.2270  140.3353  161.8878 N.pl3   1  UNL1       -0.3142
      7 H         136.2523  140.1985  161.9097 H       1  UNL1        0.1483
      8 C         138.1419  139.1735  161.6366 C.3     1  UNL1        0.1058
      9 C         138.4373  138.1996  162.7385 C.3     1  UNL1        0.0936
     10 N         139.1581  138.6582  163.9715 N.3     1  UNL1       -0.2709
     11 C         140.6545  138.7634  163.9701 C.3     1  UNL1        0.0778
     12 C         141.3752  139.2219  165.2031 C.3     1  UNL1        0.0839
     13 C         140.5996  139.5752  166.4375 C.3     1  UNL1        0.2666
     14 F         140.3086  140.0185  167.8407 F       1  UNL1       -0.2042
     15 F         141.9948  139.8344  166.9234 F       1  UNL1       -0.2042
     16 C         139.1033  139.4699  166.4389 C.3     1  UNL1        0.0839
     17 C         138.3826  139.0114  165.2059 C.3     1  UNL1        0.0778
     18 C         139.6604  144.4696  164.0939 C.3     1  UNL1        0.1556
     19 F         145.4393  143.3672  165.2727 F       1  UNL1       -0.2042
     20 C         143.9946  143.6428  164.9780 C.ar    1  UNL1        0.1401
     21 C         142.9297  142.7547  165.5501 C.ar    1  UNL1        0.0294
     22 C         141.4850  143.0303  165.2554 C.ar    1  UNL1       -0.0000
     23 C         141.1051  144.1940  164.3886 C.ar    1  UNL1        0.0023
     24 C         142.1699  145.0822  163.8166 C.ar    1  UNL1       -0.0000
     25 C         143.6147  144.8066  164.1113 C.ar    1  UNL1        0.0294
@<TRIPOS>BOND
     1    19    20    1
     2    20    21   ar
     3    21    22   ar
     4    22    23   ar
     5    23    18    1
     6    18     1    1
     7     1     2   ar
     8     2     3   ar
     9     3     6    1
    10     6     8    1
    11     8     9    1
    12     9    10    1
    13    10    11    1
    14    11    12    1
    15    12    13    1
    16    13    14    1
    17    13    15    1
    18    13    16    1
    19    16    17    1
    20     3     4   ar
    21     4     5   ar
    22    23    24   ar
    23    24    25   ar
    24    25    20   ar
    25     5     1   ar
    26    17    10    1
    27     6     7    1
@<TRIPOS>MOLECULE
*****
 25 27 0 0 0
SMALL
GASTEIGER

@<TRIPOS>ATOM
      1 N         142.5534  142.4675  164.9996 N.ar    1  UNL1       -0.2244
      2 C         142.8376  141.3500  164.0403 C.ar    1  UNL1        0.1329
      3 C         144.3003  141.3840  163.7092 C.ar    1  UNL1        0.1709
      4 N         144.9200  142.5226  164.4639 N.ar    1  UNL1       -0.1138
      5 N         143.8404  143.1922  165.2614 N.ar    1  UNL1       -0.0622
      6 N         145.0173  140.4444  162.7855 N.pl3   1  UNL1       -0.3142
      7 H         145.9819  140.2835  162.8987 H       1  UNL1        0.1483
      8 C         144.2646  139.7501  161.6895 C.3     1  UNL1        0.1058
      9 C         143.7737  138.3469  161.8892 C.3     1  UNL1        0.0936
     10 N         142.3497  138.1006  162.2912 N.3     1  UNL1       -0.2709
     11 C         141.2517  138.2256  161.2768 C.3     1  UNL1        0.0778
     12 C         139.8277  137.9793  161.6788 C.3     1  UNL1        0.0839
     13 C         139.5017  137.6080  163.0952 C.3     1  UNL1        0.2666
     14 F         138.6973  137.2351  164.3051 F       1  UNL1       -0.2042
     15 F         138.1244  137.6035  162.5010 F       1  UNL1       -0.2042
     16 C         140.5997  137.4830  164.1094 C.3     1  UNL1        0.0839
     17 C         142.0237  137.7293  163.7074 C.3     1  UNL1        0.0778
     18 C         141.2169  142.8017  165.5930 C.3     1  UNL1        0.1556
     19 F         137.3322  138.4185  166.8954 F       1  UNL1       -0.2042
     20 C         138.3033  139.5143  166.5698 C.ar    1  UNL1        0.1401
     21 C         139.3955  139.8606  167.5379 C.ar    1  UNL1        0.0294
     22 C         140.3667  140.9564  167.2123 C.ar    1  UNL1       -0.0000
     23 C         140.2457  141.7059  165.9186 C.ar    1  UNL1        0.0023
     24 C         139.1536  141.3595  164.9505 C.ar    1  UNL1       -0.0000
     25 C         138.1824  140.2637  165.2761 C.ar    1  UNL1        0.0294
@<TRIPOS>BOND
     1    19    20    1
     2    20    21   ar
     3    21    22   ar
     4    22    23   ar
     5    23    18    1
     6    18     1    1
     7     1     2   ar
     8     2     3   ar
     9     3     6    1
    10     6     8    1
    11     8     9    1
    12     9    10    1
    13    10    11    1
    14    11    12    1
    15    12    13    1
    16    13    14    1
    17    13    15    1
    18    13    16    1
    19    16    17    1
    20     3     4   ar
    21     4     5   ar
    22    23    24   ar
    23    24    25   ar
    24    25    20   ar
    25     5     1   ar
    26    17    10    1
    27     6     7    1
@<TRIPOS>MOLECULE
*****
 25 27 0 0 0
SMALL
GASTEIGER

@<TRIPOS>ATOM
      1 N         138.9045  143.7507  162.3231 N.ar    1  UNL1       -0.2244
      2 C         140.3705  143.4548  162.2073 C.ar    1  UNL1        0.1329
      3 C         141.0925  144.7559  162.0178 C.ar    1  UNL1        0.1709
      4 N         140.0726  145.8560  162.0163 N.ar    1  UNL1       -0.1138
      5 N         138.7204  145.2347  162.2050 N.ar    1  UNL1       -0.0622
      6 N         142.5741  144.9270  161.8577 N.pl3   1  UNL1       -0.3142
      7 H         142.9414  145.2699  161.0112 H       1  UNL1        0.1483
      8 C         143.4959  144.5756  162.9875 C.3     1  UNL1        0.1058
      9 C         144.3630  143.3550  162.8961 C.3     1  UNL1        0.0936
     10 N         144.0037  142.1202  163.6683 N.3     1  UNL1       -0.2709
     11 C         142.7159  142.0637  164.4356 C.3     1  UNL1        0.0778
     12 C         142.3566  140.8289  165.2079 C.3     1  UNL1        0.0839
     13 C         143.2851  139.6507  165.2129 C.3     1  UNL1        0.2666
     14 F         143.8323  138.2887  165.5216 F       1  UNL1       -0.2042
     15 F         142.1875  139.1212  166.0873 F       1  UNL1       -0.2042
     16 C         144.5728  139.7074  164.4456 C.3     1  UNL1        0.0839
     17 C         144.9321  140.9421  163.6734 C.3     1  UNL1        0.0778
     18 C         137.8141  142.7401  162.5219 C.3     1  UNL1        0.1556
     19 F         138.9577  137.6295  165.4501 F       1  UNL1       -0.2042
     20 C         138.6718  138.9071  164.7180 C.ar    1  UNL1        0.1401
     21 C         138.4946  138.8946  163.2286 C.ar    1  UNL1        0.0294
     22 C         138.2087  140.1723  162.4966 C.ar    1  UNL1       -0.0000
     23 C         138.1000  141.4624  163.2539 C.ar    1  UNL1        0.0023
     24 C         138.2772  141.4749  164.7434 C.ar    1  UNL1       -0.0000
     25 C         138.5631  140.1973  165.4754 C.ar    1  UNL1        0.0294
@<TRIPOS>BOND
     1    19    20    1
     2    20    21   ar
     3    21    22   ar
     4    22    23   ar
     5    23    18    1
     6    18     1    1
     7     1     2   ar
     8     2     3   ar
     9     3     6    1
    10     6     8    1
    11     8     9    1
    12     9    10    1
    13    10    11    1
    14    11    12    1
    15    12    13    1
    16    13    14    1
    17    13    15    1
    18    13    16    1
    19    16    17    1
    20     3     4   ar
    21     4     5   ar
    22    23    24   ar
    23    24    25   ar
    24    25    20   ar
    25     5     1   ar
    26    17    10    1
    27     6     7    1
@<TRIPOS>MOLECULE
*****
 25 27 0 0 0
SMALL
GASTEIGER

@<TRIPOS>ATOM
      1 N         140.0990  144.5468  163.1319 N.ar    1  UNL1       -0.2244
      2 C         139.6390  143.2532  163.7360 C.ar    1  UNL1        0.1329
      3 C         138.1973  143.0576  163.3705 C.ar    1  UNL1        0.1709
      4 N         137.7664  144.2304  162.5405 N.ar    1  UNL1       -0.1138
      5 N         138.9416  145.1508  162.3931 N.ar    1  UNL1       -0.0622
      6 N         137.3377  141.8936  163.7657 N.pl3   1  UNL1       -0.3142
      7 H         136.4427  142.0492  164.1453 H       1  UNL1        0.1483
      8 C         137.8415  140.4928  163.5824 C.3     1  UNL1        0.1058
      9 C         138.6066  139.8209  164.6838 C.3     1  UNL1        0.0936
     10 N         140.0958  139.6738  164.5810 N.3     1  UNL1       -0.2709
     11 C         140.7605  139.6942  163.2364 C.3     1  UNL1        0.0778
     12 C         142.2497  139.5471  163.1336 C.3     1  UNL1        0.0839
     13 C         143.0743  139.3797  164.3755 C.3     1  UNL1        0.2666
     14 F         144.2745  139.1973  165.2565 F       1  UNL1       -0.2042
     15 F         144.1557  139.3367  163.3369 F       1  UNL1       -0.2042
     16 C         142.4097  139.3593  165.7200 C.3     1  UNL1        0.0839
     17 C         140.9204  139.5064  165.8228 C.3     1  UNL1        0.0778
     18 C         141.4747  145.1335  163.2465 C.3     1  UNL1        0.1556
     19 F         146.2606  141.5259  163.5302 F       1  UNL1       -0.2042
     20 C         145.0641  142.4278  163.4593 C.ar    1  UNL1        0.1401
     21 C         144.3840  142.8720  164.7202 C.ar    1  UNL1        0.0294
     22 C         143.1875  143.7740  164.6493 C.ar    1  UNL1       -0.0000
     23 C         142.6712  144.2316  163.3174 C.ar    1  UNL1        0.0023
     24 C         143.3513  143.7873  162.0565 C.ar    1  UNL1       -0.0000
     25 C         144.5478  142.8854  162.1274 C.ar    1  UNL1        0.0294
@<TRIPOS>BOND
     1    19    20    1
     2    20    21   ar
     3    21    22   ar
     4    22    23   ar
     5    23    18    1
     6    18     1    1
     7     1     2   ar
     8     2     3   ar
     9     3     6    1
    10     6     8    1
    11     8     9    1
    12     9    10    1
    13    10    11    1
    14    11    12    1
    15    12    13    1
    16    13    14    1
    17    13    15    1
    18    13    16    1
    19    16    17    1
    20     3     4   ar
    21     4     5   ar
    22    23    24   ar
    23    24    25   ar
    24    25    20   ar
    25     5     1   ar
    26    17    10    1
    27     6     7    1
@<TRIPOS>MOLECULE
*****
 25 27 0 0 0
SMALL
GASTEIGER

@<TRIPOS>ATOM
      1 N         141.5553  138.1743  164.0966 N.ar    1  UNL1       -0.2244
      2 C         140.1036  138.1557  163.7191 C.ar    1  UNL1        0.1329
      3 C         140.0091  137.8385  162.2560 C.ar    1  UNL1        0.1709
      4 N         141.4024  137.6610  161.7292 N.ar    1  UNL1       -0.1138
      5 N         142.3579  137.8686  162.8667 N.ar    1  UNL1       -0.0622
      6 N         138.7436  137.7196  161.4596 N.pl3   1  UNL1       -0.3142
      7 H         138.6412  136.9926  160.8037 H       1  UNL1        0.1483
      8 C         137.6341  138.7084  161.6624 C.3     1  UNL1        0.1058
      9 C         137.8380  140.1494  161.2993 C.3     1  UNL1        0.0936
     10 N         138.3618  141.1137  162.3220 N.3     1  UNL1       -0.2709
     11 C         137.4564  141.6260  163.4027 C.3     1  UNL1        0.0778
     12 C         137.9801  142.5903  164.4254 C.3     1  UNL1        0.0839
     13 C         139.4094  143.0422  164.3674 C.3     1  UNL1        0.2666
     14 F         140.6770  143.7584  164.7283 F       1  UNL1       -0.2042
     15 F         138.9442  143.8033  165.5733 F       1  UNL1       -0.2042
     16 C         140.3147  142.5298  163.2867 C.3     1  UNL1        0.0839
     17 C         139.7909  141.5655  162.2641 C.3     1  UNL1        0.0778
     18 C         142.1073  138.4502  165.4637 C.3     1  UNL1        0.1556
     19 F         140.4969  143.4278  168.4012 F       1  UNL1       -0.2042
     20 C         140.8995  142.1834  167.6668 C.ar    1  UNL1        0.1401
     21 C         142.2649  142.0827  167.0541 C.ar    1  UNL1        0.0294
     22 C         142.6675  140.8383  166.3197 C.ar    1  UNL1       -0.0000
     23 C         141.7047  139.6946  166.1981 C.ar    1  UNL1        0.0023
     24 C         140.3393  139.7953  166.8108 C.ar    1  UNL1       -0.0000
     25 C         139.9367  141.0397  167.5451 C.ar    1  UNL1        0.0294
@<TRIPOS>BOND
     1    19    20    1
     2    20    21   ar
     3    21    22   ar
     4    22    23   ar
     5    23    18    1
     6    18     1    1
     7     1     2   ar
     8     2     3   ar
     9     3     6    1
    10     6     8    1
    11     8     9    1
    12     9    10    1
    13    10    11    1
    14    11    12    1
    15    12    13    1
    16    13    14    1
    17    13    15    1
    18    13    16    1
    19    16    17    1
    20     3     4   ar
    21     4     5   ar
    22    23    24   ar
    23    24    25   ar
    24    25    20   ar
    25     5     1   ar
    26    17    10    1
    27     6     7    1
@<TRIPOS>MOLECULE
*****
 25 27 0 0 0
SMALL
GASTEIGER

@<TRIPOS>ATOM
      1 N         144.0197  142.8060  163.4104 N.ar    1  UNL1       -0.2244
      2 C         143.5096  141.7103  162.5220 C.ar    1  UNL1        0.1329
      3 C         144.5275  140.6084  162.5136 C.ar    1  UNL1        0.1709
      4 N         145.6668  141.0233  163.3969 N.ar    1  UNL1       -0.1138
      5 N         145.3530  142.3813  163.9511 N.ar    1  UNL1       -0.0622
      6 N         144.4243  139.3184  161.7552 N.pl3   1  UNL1       -0.3142
      7 H         144.9973  139.1618  160.9702 H       1  UNL1        0.1483
      8 C         143.4480  138.2672  162.1929 C.3     1  UNL1        0.1058
      9 C         142.0123  138.3531  161.7671 C.3     1  UNL1        0.0936
     10 N         140.9350  138.5367  162.7945 N.3     1  UNL1       -0.2709
     11 C         140.5979  137.4184  163.7358 C.3     1  UNL1        0.0778
     12 C         139.5205  137.6020  164.7633 C.3     1  UNL1        0.0839
     13 C         138.7802  138.9039  164.8493 C.3     1  UNL1        0.2666
     14 F         137.8052  139.9426  165.3190 F       1  UNL1       -0.2042
     15 F         138.1045  138.1464  165.9537 F       1  UNL1       -0.2042
     16 C         139.1173  140.0220  163.9080 C.3     1  UNL1        0.0839
     17 C         140.1947  139.8384  162.8806 C.3     1  UNL1        0.0778
     18 C         143.3197  144.0991  163.7062 C.3     1  UNL1        0.1556
     19 F         137.4532  144.1152  164.9649 F       1  UNL1       -0.2042
     20 C         138.9198  144.1112  164.6502 C.ar    1  UNL1        0.1401
     21 C         139.4541  144.9845  163.5540 C.ar    1  UNL1        0.0294
     22 C         140.9207  144.9805  163.2393 C.ar    1  UNL1       -0.0000
     23 C         141.8531  144.1032  164.0208 C.ar    1  UNL1        0.0023
     24 C         141.3188  143.2298  165.1171 C.ar    1  UNL1       -0.0000
     25 C         139.8522  143.2338  165.4318 C.ar    1  UNL1        0.0294
@<TRIPOS>BOND
     1    19    20    1
     2    20    21   ar
     3    21    22   ar
     4    22    23   ar
     5    23    18    1
     6    18     1    1
     7     1     2   ar
     8     2     3   ar
     9     3     6    1
    10     6     8    1
    11     8     9    1
    12     9    10    1
    13    10    11    1
    14    11    12    1
    15    12    13    1
    16    13    14    1
    17    13    15    1
    18    13    16    1
    19    16    17    1
    20     3     4   ar
    21     4     5   ar
    22    23    24   ar
    23    24    25   ar
    24    25    20   ar
    25     5     1   ar
    26    17    10    1
    27     6     7    1
@<TRIPOS>MOLECULE
*****
 25 27 0 0 0
SMALL
GASTEIGER

@<TRIPOS>ATOM
      1 N         140.3857  140.3856  165.9949 N.ar    1  UNL1       -0.2244
      2 C         139.7389  141.6065  165.4108 C.ar    1  UNL1        0.1329
      3 C         138.3664  141.2244  164.9414 C.ar    1  UNL1        0.1709
      4 N         138.1649  139.7673  165.2354 N.ar    1  UNL1       -0.1138
      5 N         139.4128  139.2489  165.8865 N.ar    1  UNL1       -0.0622
      6 N         137.3703  142.1388  164.2920 N.pl3   1  UNL1       -0.3142
      7 H         136.4106  141.9207  164.3198 H       1  UNL1        0.1483
      8 C         137.8363  143.3855  163.6004 C.3     1  UNL1        0.1058
      9 C         138.7841  143.2907  162.4416 C.3     1  UNL1        0.0936
     10 N         140.2023  143.7554  162.5928 N.3     1  UNL1       -0.2709
     11 C         141.2817  143.1600  161.7380 C.3     1  UNL1        0.0778
     12 C         142.6999  143.6247  161.8892 C.3     1  UNL1        0.0839
     13 C         143.0387  144.6847  162.8950 C.3     1  UNL1        0.2666
     14 F         143.8502  145.6549  163.7013 F       1  UNL1       -0.2042
     15 F         144.3999  144.4263  162.3203 F       1  UNL1       -0.2042
     16 C         141.9593  145.2800  163.7497 C.3     1  UNL1        0.0839
     17 C         140.5410  144.8153  163.5986 C.3     1  UNL1        0.0778
     18 C         141.7632  140.3139  166.5840 C.3     1  UNL1        0.1556
     19 F         146.5292  141.8082  163.2593 F       1  UNL1       -0.2042
     20 C         145.3377  141.4346  164.0905 C.ar    1  UNL1        0.1401
     21 C         144.6480  142.4746  164.9227 C.ar    1  UNL1        0.0294
     22 C         143.4565  142.1010  165.7539 C.ar    1  UNL1       -0.0000
     23 C         142.9547  140.6875  165.7528 C.ar    1  UNL1        0.0023
     24 C         143.6444  139.6475  164.9205 C.ar    1  UNL1       -0.0000
     25 C         144.8359  140.0211  164.0894 C.ar    1  UNL1        0.0294
@<TRIPOS>BOND
     1    19    20    1
     2    20    21   ar
     3    21    22   ar
     4    22    23   ar
     5    23    18    1
     6    18     1    1
     7     1     2   ar
     8     2     3   ar
     9     3     6    1
    10     6     8    1
    11     8     9    1
    12     9    10    1
    13    10    11    1
    14    11    12    1
    15    12    13    1
    16    13    14    1
    17    13    15    1
    18    13    16    1
    19    16    17    1
    20     3     4   ar
    21     4     5   ar
    22    23    24   ar
    23    24    25   ar
    24    25    20   ar
    25     5     1   ar
    26    17    10    1
    27     6     7    1
