@<TRIPOS>MOLECULE
*****
 44 48 0 0 0
SMALL
GASTEIGER

@<TRIPOS>ATOM
      1 C         140.7481  141.7456  164.4341 C.ar    1  UNL1        0.1255
      2 N         141.7928  141.2356  163.4863 N.ar    1  UNL1       -0.2304
      3 C         141.6587  141.9920  162.1980 C.ar    1  UNL1        0.1035
      4 C         140.5311  142.9696  162.3496 C.ar    1  UNL1        0.1142
      5 C         139.9441  143.9787  161.4078 C.ar    1  UNL1        0.1432
      6 N         140.5069  144.1310  160.0257 N.pl3   1  UNL1       -0.3414
      7 N         138.7943  144.8355  161.8480 N.ar    1  UNL1       -0.2265
      8 C         138.2315  144.6832  163.2301 C.ar    1  UNL1        0.1193
      9 C         138.8185  143.6741  164.1719 C.ar    1  UNL1        0.1020
     10 N         139.9683  142.8173  163.7317 N.ar    1  UNL1       -0.2884
     11 H         141.2615  143.5686  159.7368 H       1  UNL1        0.1438
     12 H         140.1216  144.7933  159.4076 H       1  UNL1        0.1438
     13 C         141.9423  141.9067  169.4886 C.2     1  UNL1        0.2559
     14 O         142.9901  142.9427  169.2081 O.2     1  UNL1       -0.2721
     15 N         141.1198  141.3484  168.3654 N.am    1  UNL1       -0.2771
     16 C         140.0720  140.3124  168.6460 C.3     1  UNL1        0.0935
     17 C         139.2495  139.7542  167.5226 C.3     1  UNL1        0.0220
     18 C         139.4749  140.2319  166.1187 C.3     1  UNL1        0.0110
     19 C         140.5227  141.2679  165.8381 C.3     1  UNL1        0.0771
     20 C         141.3452  141.8262  166.9615 C.3     1  UNL1        0.1009
     21 C         141.7169  141.4290  170.8926 C.3     1  UNL1        0.2272
     22 C         139.6412  142.9772  171.1046 C.3     1  UNL1        0.1748
     23 O         140.6377  142.0474  171.7311 O.3     1  UNL1       -0.3417
     24 C         142.5037  141.8040  160.9730 C.ar    1  UNL1        0.0467
     25 C         142.1637  140.7277  159.9852 C.ar    1  UNL1        0.0039
     26 C         143.0088  140.5397  158.7602 C.ar    1  UNL1        0.0047
     27 C         144.1940  141.4280  158.5231 C.ar    1  UNL1        0.0559
     28 C         144.5341  142.5042  159.5110 C.ar    1  UNL1        0.0342
     29 C         143.6890  142.6923  160.7359 C.ar    1  UNL1        0.1417
     30 F         144.0292  143.7686  161.7238 F       1  UNL1       -0.2041
     31 C         145.0391  141.2399  157.2982 C.2     1  UNL1        0.2506
     32 O         145.0972  139.9005  156.6256 O.2     1  UNL1       -0.2698
     33 N         145.8260  142.3913  156.7459 N.am    1  UNL1       -0.2658
     34 H         145.7879  143.2704  157.1874 H       1  UNL1        0.1566
     35 C         146.6711  142.2031  155.5210 C.ar    1  UNL1        0.1343
     36 C         148.1653  142.1504  155.6416 C.ar    1  UNL1        0.0383
     37 C         149.0105  141.9623  154.4167 C.ar    1  UNL1        0.0757
     38 C         148.3613  141.8269  153.0712 C.ar    1  UNL1        0.0246
     39 C         146.8671  141.8796  152.9506 C.ar    1  UNL1        0.1003
     40 N         146.0220  142.0677  154.1755 N.ar    1  UNL1       -0.2290
     41 C         150.5047  141.9096  154.5373 C.3     1  UNL1        0.4187
     42 F         151.9989  141.8569  154.6578 F       1  UNL1       -0.1659
     43 F         150.6187  141.7414  153.0511 F       1  UNL1       -0.1659
     44 F         150.3907  142.0778  156.0234 F       1  UNL1       -0.1659
@<TRIPOS>BOND
     1    22    23    1
     2    23    21    1
     3    21    13    1
     4    13    14    2
     5    13    15   am
     6    15    16    1
     7    16    17    1
     8    17    18    1
     9    18    19    1
    10    19     1    1
    11     1     2   ar
    12     2     3   ar
    13     3    24    1
    14    24    25   ar
    15    25    26   ar
    16    26    27   ar
    17    27    31    1
    18    31    32    2
    19    31    33   am
    20    33    35    1
    21    35    36   ar
    22    36    37   ar
    23    37    41    1
    24    41    42    1
    25    41    43    1
    26    41    44    1
    27    37    38   ar
    28    38    39   ar
    29    39    40   ar
    30    27    28   ar
    31    28    29   ar
    32    29    30    1
    33     3     4   ar
    34     4     5   ar
    35     5     6    1
    36     5     7   ar
    37     7     8   ar
    38     8     9   ar
    39     9    10   ar
    40    19    20    1
    41    20    15    1
    42    10     1   ar
    43    29    24   ar
    44    10     4   ar
    45    40    35   ar
    46    33    34    1
    47     6    11    1
    48     6    12    1
@<TRIPOS>MOLECULE
*****
 44 48 0 0 0
SMALL
GASTEIGER

@<TRIPOS>ATOM
      1 C         142.8973  136.4429  157.7165 C.ar    1  UNL1        0.1255
      2 N         142.6495  136.3684  159.1940 N.ar    1  UNL1       -0.2304
      3 C         142.5956  137.7698  159.7262 C.ar    1  UNL1        0.1035
      4 C         142.8101  138.7104  158.5776 C.ar    1  UNL1        0.1142
      5 C         142.8597  140.2077  158.5022 C.ar    1  UNL1        0.1432
      6 N         142.6733  141.0277  159.7443 N.pl3   1  UNL1       -0.3414
      7 N         143.0958  140.8849  157.1848 N.ar    1  UNL1       -0.2265
      8 C         143.2822  140.0648  155.9427 C.ar    1  UNL1        0.1193
      9 C         143.2326  138.5675  156.0181 C.ar    1  UNL1        0.1020
     10 N         142.9966  137.8903  157.3355 N.ar    1  UNL1       -0.2884
     11 H         142.5184  140.5832  160.6090 H       1  UNL1        0.1438
     12 H         142.7059  142.0104  159.6948 H       1  UNL1        0.1438
     13 C         144.7966  131.7273  156.6415 C.2     1  UNL1        0.2559
     14 O         145.4936  131.7053  157.9695 O.2     1  UNL1       -0.2721
     15 N         143.9733  132.9172  156.2461 N.am    1  UNL1       -0.2771
     16 C         143.2764  132.9393  154.9181 C.3     1  UNL1        0.0935
     17 C         142.4531  134.1292  154.5228 C.3     1  UNL1        0.0220
     18 C         142.3267  135.2971  155.4556 C.3     1  UNL1        0.0110
     19 C         143.0236  135.2751  156.7837 C.3     1  UNL1        0.0771
     20 C         143.8470  134.0851  157.1790 C.3     1  UNL1        0.1009
     21 C         144.9230  130.5595  155.7086 C.3     1  UNL1        0.2272
     22 C         143.3481  128.8778  156.9095 C.3     1  UNL1        0.1748
     23 O         143.8367  129.5267  155.6485 O.3     1  UNL1       -0.3417
     24 C         142.3674  138.1618  161.1559 C.ar    1  UNL1        0.0467
     25 C         143.5369  138.4307  162.0558 C.ar    1  UNL1        0.0039
     26 C         143.3086  138.8227  163.4856 C.ar    1  UNL1        0.0047
     27 C         141.9107  138.9458  164.0155 C.ar    1  UNL1        0.0559
     28 C         140.7412  138.6769  163.1156 C.ar    1  UNL1        0.0342
     29 C         140.9694  138.2849  161.6859 C.ar    1  UNL1        0.1417
     30 F         139.7998  138.0160  160.7860 F       1  UNL1       -0.2041
     31 C         141.6825  139.3378  165.4453 C.2     1  UNL1        0.2506
     32 O         140.3101  139.2332  166.0416 O.2     1  UNL1       -0.2698
     33 N         142.8265  139.8344  166.2786 N.am    1  UNL1       -0.2658
     34 H         143.7273  139.9030  165.8872 H       1  UNL1        0.1566
     35 C         142.5982  140.2263  167.7084 C.ar    1  UNL1        0.1343
     36 C         142.0636  141.5890  168.0362 C.ar    1  UNL1        0.0383
     37 C         141.8352  141.9810  169.4660 C.ar    1  UNL1        0.0757
     38 C         142.1414  141.0104  170.5678 C.ar    1  UNL1        0.0246
     39 C         142.6759  139.6478  170.2400 C.ar    1  UNL1        0.1003
     40 N         142.9043  139.2557  168.8103 N.ar    1  UNL1       -0.2290
     41 C         141.3007  143.3437  169.7938 C.3     1  UNL1        0.4187
     42 F         140.7662  144.7063  170.1216 F       1  UNL1       -0.1659
     43 F         139.9970  142.9890  169.1423 F       1  UNL1       -0.1659
     44 F         142.6045  143.6984  170.4453 F       1  UNL1       -0.1659
@<TRIPOS>BOND
     1    22    23    1
     2    23    21    1
     3    21    13    1
     4    13    14    2
     5    13    15   am
     6    15    16    1
     7    16    17    1
     8    17    18    1
     9    18    19    1
    10    19     1    1
    11     1     2   ar
    12     2     3   ar
    13     3    24    1
    14    24    25   ar
    15    25    26   ar
    16    26    27   ar
    17    27    31    1
    18    31    32    2
    19    31    33   am
    20    33    35    1
    21    35    36   ar
    22    36    37   ar
    23    37    41    1
    24    41    42    1
    25    41    43    1
    26    41    44    1
    27    37    38   ar
    28    38    39   ar
    29    39    40   ar
    30    27    28   ar
    31    28    29   ar
    32    29    30    1
    33     3     4   ar
    34     4     5   ar
    35     5     6    1
    36     5     7   ar
    37     7     8   ar
    38     8     9   ar
    39     9    10   ar
    40    19    20    1
    41    20    15    1
    42    10     1   ar
    43    29    24   ar
    44    10     4   ar
    45    40    35   ar
    46    33    34    1
    47     6    11    1
    48     6    12    1
@<TRIPOS>MOLECULE
*****
 44 48 0 0 0
SMALL
GASTEIGER

@<TRIPOS>ATOM
      1 C         139.5601  144.7411  157.1300 C.ar    1  UNL1        0.1255
      2 N         140.0377  144.7720  158.5516 N.ar    1  UNL1       -0.2304
      3 C         139.6141  143.4930  159.2108 C.ar    1  UNL1        0.1035
      4 C         138.8745  142.6716  158.1967 C.ar    1  UNL1        0.1142
      5 C         138.2272  141.3209  158.2782 C.ar    1  UNL1        0.1432
      6 N         138.2606  140.5496  159.5642 N.pl3   1  UNL1       -0.3414
      7 N         137.5466  140.7417  157.0736 N.ar    1  UNL1       -0.2265
      8 C         137.5132  141.5130  155.7876 C.ar    1  UNL1        0.1193
      9 C         138.1605  142.8637  155.7061 C.ar    1  UNL1        0.1020
     10 N         138.8412  143.4430  156.9107 N.ar    1  UNL1       -0.2884
     11 H         138.7074  140.9298  160.3548 H       1  UNL1        0.1438
     12 H         137.8357  139.6631  159.6177 H       1  UNL1        0.1438
     13 C         138.8835  149.6508  155.5691 C.2     1  UNL1        0.2559
     14 O         138.1348  149.9498  156.8341 O.2     1  UNL1       -0.2721
     15 N         139.4269  148.2739  155.3268 N.am    1  UNL1       -0.2771
     16 C         140.1756  147.9749  154.0618 C.3     1  UNL1        0.0935
     17 C         140.7190  146.5980  153.8196 C.3     1  UNL1        0.0220
     18 C         140.5138  145.5201  154.8424 C.3     1  UNL1        0.0110
     19 C         139.7653  145.8190  156.1073 C.3     1  UNL1        0.0771
     20 C         139.2218  147.1960  156.3495 C.3     1  UNL1        0.1009
     21 C         139.0887  150.7288  154.5464 C.3     1  UNL1        0.2272
     22 C         141.5842  151.4471  154.4664 C.3     1  UNL1        0.1748
     23 O         140.1482  151.7697  154.7560 O.3     1  UNL1       -0.3417
     24 C         139.8827  143.1037  160.6343 C.ar    1  UNL1        0.0467
     25 C         138.8627  143.3911  161.6958 C.ar    1  UNL1        0.0039
     26 C         139.1313  143.0018  163.1192 C.ar    1  UNL1        0.0047
     27 C         140.4201  142.3251  163.4813 C.ar    1  UNL1        0.0559
     28 C         141.4402  142.0377  162.4198 C.ar    1  UNL1        0.0342
     29 C         141.1716  142.4270  160.9963 C.ar    1  UNL1        0.1417
     30 F         142.1917  142.1396  159.9349 F       1  UNL1       -0.2041
     31 C         140.6888  141.9358  164.9047 C.2     1  UNL1        0.2506
     32 O         139.5707  141.9312  165.9047 O.2     1  UNL1       -0.2698
     33 N         142.0754  141.5511  165.3282 N.am    1  UNL1       -0.2658
     34 H         142.8092  141.5542  164.6718 H       1  UNL1        0.1566
     35 C         142.3439  141.1618  166.7517 C.ar    1  UNL1        0.1343
     36 C         142.7017  142.2117  167.7615 C.ar    1  UNL1        0.0383
     37 C         142.9703  141.8225  169.1851 C.ar    1  UNL1        0.0757
     38 C         142.8811  140.3834  169.5987 C.ar    1  UNL1        0.0246
     39 C         142.5233  139.3336  168.5888 C.ar    1  UNL1        0.1003
     40 N         142.2547  139.7228  167.1653 N.ar    1  UNL1       -0.2290
     41 C         143.3281  142.8723  170.1949 C.3     1  UNL1        0.4187
     42 F         143.6858  143.9222  171.2047 F       1  UNL1       -0.1659
     43 F         141.8829  143.2586  170.3054 F       1  UNL1       -0.1659
     44 F         144.7732  142.4861  170.0844 F       1  UNL1       -0.1659
@<TRIPOS>BOND
     1    22    23    1
     2    23    21    1
     3    21    13    1
     4    13    14    2
     5    13    15   am
     6    15    16    1
     7    16    17    1
     8    17    18    1
     9    18    19    1
    10    19     1    1
    11     1     2   ar
    12     2     3   ar
    13     3    24    1
    14    24    25   ar
    15    25    26   ar
    16    26    27   ar
    17    27    31    1
    18    31    32    2
    19    31    33   am
    20    33    35    1
    21    35    36   ar
    22    36    37   ar
    23    37    41    1
    24    41    42    1
    25    41    43    1
    26    41    44    1
    27    37    38   ar
    28    38    39   ar
    29    39    40   ar
    30    27    28   ar
    31    28    29   ar
    32    29    30    1
    33     3     4   ar
    34     4     5   ar
    35     5     6    1
    36     5     7   ar
    37     7     8   ar
    38     8     9   ar
    39     9    10   ar
    40    19    20    1
    41    20    15    1
    42    10     1   ar
    43    29    24   ar
    44    10     4   ar
    45    40    35   ar
    46    33    34    1
    47     6    11    1
    48     6    12    1
@<TRIPOS>MOLECULE
*****
 44 48 0 0 0
SMALL
GASTEIGER

@<TRIPOS>ATOM
      1 C         141.1078  141.7203  164.4213 C.ar    1  UNL1        0.1255
      2 N         141.2831  140.5763  163.4671 N.ar    1  UNL1       -0.2304
      3 C         140.7177  140.9887  162.1403 C.ar    1  UNL1        0.1035
      4 C         140.1930  142.3875  162.2745 C.ar    1  UNL1        0.1142
      5 C         139.5269  143.3079  161.2952 C.ar    1  UNL1        0.1432
      6 N         139.2858  142.8557  159.8855 N.pl3   1  UNL1       -0.3414
      7 N         139.1018  144.6805  161.7256 N.ar    1  UNL1       -0.2265
      8 C         139.3429  145.1326  163.1354 C.ar    1  UNL1        0.1193
      9 C         140.0091  144.2123  164.1147 C.ar    1  UNL1        0.1020
     10 N         140.4341  142.8397  163.6843 N.ar    1  UNL1       -0.2884
     11 H         139.5647  141.9548  159.6030 H       1  UNL1        0.1438
     12 H         138.8485  143.4598  159.2427 H       1  UNL1        0.1438
     13 C         140.2253  140.4865  169.3911 C.2     1  UNL1        0.2559
     14 O         138.9362  139.8276  168.9986 O.2     1  UNL1       -0.2721
     15 N         141.0905  141.1244  168.3449 N.am    1  UNL1       -0.2771
     16 C         142.3796  141.7832  168.7374 C.3     1  UNL1        0.0935
     17 C         143.2448  142.4211  167.6912 C.3     1  UNL1        0.0220
     18 C         142.8208  142.4001  166.2525 C.3     1  UNL1        0.0110
     19 C         141.5318  141.7413  165.8600 C.3     1  UNL1        0.0771
     20 C         140.6665  141.1034  166.9062 C.3     1  UNL1        0.1009
     21 C         140.6493  140.5074  170.8298 C.3     1  UNL1        0.2272
     22 C         139.6675  142.8994  171.0854 C.3     1  UNL1        0.1748
     23 O         140.3961  141.7250  171.6686 O.3     1  UNL1       -0.3417
     24 C         140.6831  140.1495  160.8975 C.ar    1  UNL1        0.0467
     25 C         141.8380  140.1779  159.9409 C.ar    1  UNL1        0.0039
     26 C         141.8034  139.3388  158.6980 C.ar    1  UNL1        0.0047
     27 C         140.6137  138.4712  158.4118 C.ar    1  UNL1        0.0559
     28 C         139.4587  138.4427  159.3683 C.ar    1  UNL1        0.0342
     29 C         139.4933  139.2819  160.6112 C.ar    1  UNL1        0.1417
     30 F         138.3383  139.2534  161.5678 F       1  UNL1       -0.2041
     31 C         140.5791  137.6320  157.1689 C.2     1  UNL1        0.2506
     32 O         139.2782  137.3931  156.4614 O.2     1  UNL1       -0.2698
     33 N         141.8453  137.0319  156.6336 N.am    1  UNL1       -0.2658
     34 H         142.6991  137.1888  157.0980 H       1  UNL1        0.1566
     35 C         141.8106  136.1928  155.3908 C.ar    1  UNL1        0.1343
     36 C         141.8648  134.6973  155.4938 C.ar    1  UNL1        0.0383
     37 C         141.8301  133.8581  154.2510 C.ar    1  UNL1        0.0757
     38 C         141.7411  134.5144  152.9052 C.ar    1  UNL1        0.0246
     39 C         141.6869  136.0099  152.8022 C.ar    1  UNL1        0.1003
     40 N         141.7217  136.8491  154.0449 N.ar    1  UNL1       -0.2290
     41 C         141.8843  132.3626  154.3541 C.3     1  UNL1        0.4187
     42 F         141.9385  130.8672  154.4572 F       1  UNL1       -0.1659
     43 F         140.6830  132.3810  155.2522 F       1  UNL1       -0.1659
     44 F         143.0855  132.3443  153.4560 F       1  UNL1       -0.1659
@<TRIPOS>BOND
     1    22    23    1
     2    23    21    1
     3    21    13    1
     4    13    14    2
     5    13    15   am
     6    15    16    1
     7    16    17    1
     8    17    18    1
     9    18    19    1
    10    19     1    1
    11     1     2   ar
    12     2     3   ar
    13     3    24    1
    14    24    25   ar
    15    25    26   ar
    16    26    27   ar
    17    27    31    1
    18    31    32    2
    19    31    33   am
    20    33    35    1
    21    35    36   ar
    22    36    37   ar
    23    37    41    1
    24    41    42    1
    25    41    43    1
    26    41    44    1
    27    37    38   ar
    28    38    39   ar
    29    39    40   ar
    30    27    28   ar
    31    28    29   ar
    32    29    30    1
    33     3     4   ar
    34     4     5   ar
    35     5     6    1
    36     5     7   ar
    37     7     8   ar
    38     8     9   ar
    39     9    10   ar
    40    19    20    1
    41    20    15    1
    42    10     1   ar
    43    29    24   ar
    44    10     4   ar
    45    40    35   ar
    46    33    34    1
    47     6    11    1
    48     6    12    1
@<TRIPOS>MOLECULE
*****
 44 48 0 0 0
SMALL
GASTEIGER

@<TRIPOS>ATOM
      1 C         142.6533  137.6523  157.7176 C.ar    1  UNL1        0.1255
      2 N         142.4450  137.6419  159.2030 N.ar    1  UNL1       -0.2304
      3 C         142.9171  138.9579  159.7464 C.ar    1  UNL1        0.1035
      4 C         143.4170  139.7816  158.5968 C.ar    1  UNL1        0.1142
      5 C         143.9997  141.1622  158.5298 C.ar    1  UNL1        0.1432
      6 N         144.1627  141.9691  159.7837 N.pl3   1  UNL1       -0.3414
      7 N         144.4193  141.7358  157.2089 N.ar    1  UNL1       -0.2265
      8 C         144.2562  140.9289  155.9550 C.ar    1  UNL1        0.1193
      9 C         143.6736  139.5483  156.0220 C.ar    1  UNL1        0.1020
     10 N         143.2540  138.9747  157.3429 N.ar    1  UNL1       -0.2884
     11 H         143.8873  141.5926  160.6506 H       1  UNL1        0.1438
     12 H         144.5451  142.8753  159.7397 H       1  UNL1        0.1438
     13 C         143.4844  132.8258  155.9813 C.2     1  UNL1        0.2559
     14 O         144.5676  132.6448  157.0029 O.2     1  UNL1       -0.2721
     15 N         142.7350  134.1229  155.9045 N.am    1  UNL1       -0.2771
     16 C         141.6517  134.3039  154.8828 C.3     1  UNL1        0.0935
     17 C         140.9024  135.6010  154.8061 C.3     1  UNL1        0.0220
     18 C         141.2362  136.7171  155.7510 C.3     1  UNL1        0.0110
     19 C         142.3194  136.5362  156.7726 C.3     1  UNL1        0.0771
     20 C         143.0688  135.2390  156.8494 C.3     1  UNL1        0.1009
     21 C         143.1505  131.7097  155.0364 C.3     1  UNL1        0.2272
     22 C         140.7733  130.6837  154.8206 C.3     1  UNL1        0.1748
     23 O         142.1439  130.6696  155.4300 O.3     1  UNL1       -0.3417
     24 C         142.8933  139.3767  161.1865 C.ar    1  UNL1        0.0467
     25 C         144.0201  138.9913  162.0984 C.ar    1  UNL1        0.0039
     26 C         143.9964  139.4101  163.5386 C.ar    1  UNL1        0.0047
     27 C         142.8458  140.2144  164.0668 C.ar    1  UNL1        0.0559
     28 C         141.7189  140.5999  163.1550 C.ar    1  UNL1        0.0342
     29 C         141.7426  140.1811  161.7148 C.ar    1  UNL1        0.1417
     30 F         140.6157  140.5666  160.8030 F       1  UNL1       -0.2041
     31 C         142.8220  140.6332  165.5070 C.2     1  UNL1        0.2506
     32 O         143.5251  141.8872  165.9350 O.2     1  UNL1       -0.2698
     33 N         142.0952  139.7981  166.5191 N.am    1  UNL1       -0.2658
     34 H         141.6337  138.9751  166.2381 H       1  UNL1        0.1566
     35 C         142.0715  140.2170  167.9592 C.ar    1  UNL1        0.1343
     36 C         141.2922  141.4295  168.3748 C.ar    1  UNL1        0.0383
     37 C         141.2685  141.8485  169.8149 C.ar    1  UNL1        0.0757
     38 C         142.0240  141.0549  170.8394 C.ar    1  UNL1        0.0246
     39 C         142.8032  139.8425  170.4237 C.ar    1  UNL1        0.1003
     40 N         142.8270  139.4235  168.9836 N.ar    1  UNL1       -0.2290
     41 C         140.4892  143.0609  170.2306 C.3     1  UNL1        0.4187
     42 F         139.7100  144.2733  170.6462 F       1  UNL1       -0.1659
     43 F         141.7252  143.9005  170.0986 F       1  UNL1       -0.1659
     44 F         139.2533  142.2213  170.3625 F       1  UNL1       -0.1659
@<TRIPOS>BOND
     1    22    23    1
     2    23    21    1
     3    21    13    1
     4    13    14    2
     5    13    15   am
     6    15    16    1
     7    16    17    1
     8    17    18    1
     9    18    19    1
    10    19     1    1
    11     1     2   ar
    12     2     3   ar
    13     3    24    1
    14    24    25   ar
    15    25    26   ar
    16    26    27   ar
    17    27    31    1
    18    31    32    2
    19    31    33   am
    20    33    35    1
    21    35    36   ar
    22    36    37   ar
    23    37    41    1
    24    41    42    1
    25    41    43    1
    26    41    44    1
    27    37    38   ar
    28    38    39   ar
    29    39    40   ar
    30    27    28   ar
    31    28    29   ar
    32    29    30    1
    33     3     4   ar
    34     4     5   ar
    35     5     6    1
    36     5     7   ar
    37     7     8   ar
    38     8     9   ar
    39     9    10   ar
    40    19    20    1
    41    20    15    1
    42    10     1   ar
    43    29    24   ar
    44    10     4   ar
    45    40    35   ar
    46    33    34    1
    47     6    11    1
    48     6    12    1
@<TRIPOS>MOLECULE
*****
 44 48 0 0 0
SMALL
GASTEIGER

@<TRIPOS>ATOM
      1 C         141.0538  140.2461  164.2206 C.ar    1  UNL1        0.1255
      2 N         141.4407  141.4583  163.4263 N.ar    1  UNL1       -0.2304
      3 C         140.6883  141.4221  162.1292 C.ar    1  UNL1        0.1035
      4 C         139.8363  140.1876  162.1218 C.ar    1  UNL1        0.1142
      5 C         138.8841  139.6314  161.1051 C.ar    1  UNL1        0.1432
      6 N         138.6582  140.3582  159.8125 N.pl3   1  UNL1       -0.3414
      7 N         138.1577  138.3484  161.3809 N.ar    1  UNL1       -0.2265
      8 C         138.3835  137.6215  162.6735 C.ar    1  UNL1        0.1193
      9 C         139.3358  138.1777  163.6902 C.ar    1  UNL1        0.1020
     10 N         140.0622  139.4608  163.4143 N.ar    1  UNL1       -0.2884
     11 H         139.1349  141.2003  159.6315 H       1  UNL1        0.1438
     12 H         138.0331  139.9931  159.1452 H       1  UNL1        0.1438
     13 C         140.5232  140.2859  169.3894 C.2     1  UNL1        0.2559
     14 O         139.2293  141.0320  169.2509 O.2     1  UNL1       -0.2721
     15 N         141.3028  139.9029  168.1665 N.am    1  UNL1       -0.2771
     16 C         142.5967  139.1568  168.3051 C.3     1  UNL1        0.0935
     17 C         143.3762  138.7738  167.0822 C.3     1  UNL1        0.0220
     18 C         142.8619  139.1369  165.7207 C.3     1  UNL1        0.0110
     19 C         141.5681  139.8830  165.5821 C.3     1  UNL1        0.0771
     20 C         140.7885  140.2660  166.8051 C.3     1  UNL1        0.1009
     21 C         141.0375  139.9228  170.7509 C.3     1  UNL1        0.2272
     22 C         142.1832  142.2319  171.0760 C.3     1  UNL1        0.1748
     23 O         141.5777  140.9888  171.6575 O.3     1  UNL1       -0.3417
     24 C         140.7730  142.4415  161.0321 C.ar    1  UNL1        0.0467
     25 C         141.7584  142.2618  159.9156 C.ar    1  UNL1        0.0039
     26 C         141.8430  143.2812  158.8185 C.ar    1  UNL1        0.0047
     27 C         140.9422  144.4804  158.8378 C.ar    1  UNL1        0.0559
     28 C         139.9567  144.6602  159.9543 C.ar    1  UNL1        0.0342
     29 C         139.8721  143.6408  161.0514 C.ar    1  UNL1        0.1417
     30 F         138.8866  143.8206  162.1679 F       1  UNL1       -0.2041
     31 C         141.0269  145.4998  157.7407 C.2     1  UNL1        0.2506
     32 O         142.3139  146.2289  157.4922 O.2     1  UNL1       -0.2698
     33 N         139.8245  145.7900  156.8922 N.am    1  UNL1       -0.2658
     34 H         138.9797  145.3115  157.0553 H       1  UNL1        0.1566
     35 C         139.9092  146.8094  155.7951 C.ar    1  UNL1        0.1343
     36 C         139.2691  148.1546  155.9702 C.ar    1  UNL1        0.0383
     37 C         139.3538  149.1741  154.8732 C.ar    1  UNL1        0.0757
     38 C         140.0786  148.8483  153.6010 C.ar    1  UNL1        0.0246
     39 C         140.7187  147.5031  153.4258 C.ar    1  UNL1        0.1003
     40 N         140.6340  146.4836  154.5229 N.ar    1  UNL1       -0.2290
     41 C         138.7138  150.5193  155.0483 C.3     1  UNL1        0.4187
     42 F         138.0737  151.8645  155.2235 F       1  UNL1       -0.1659
     43 F         137.9101  149.9873  156.1977 F       1  UNL1       -0.1659
     44 F         139.5174  151.0514  153.8989 F       1  UNL1       -0.1659
@<TRIPOS>BOND
     1    22    23    1
     2    23    21    1
     3    21    13    1
     4    13    14    2
     5    13    15   am
     6    15    16    1
     7    16    17    1
     8    17    18    1
     9    18    19    1
    10    19     1    1
    11     1     2   ar
    12     2     3   ar
    13     3    24    1
    14    24    25   ar
    15    25    26   ar
    16    26    27   ar
    17    27    31    1
    18    31    32    2
    19    31    33   am
    20    33    35    1
    21    35    36   ar
    22    36    37   ar
    23    37    41    1
    24    41    42    1
    25    41    43    1
    26    41    44    1
    27    37    38   ar
    28    38    39   ar
    29    39    40   ar
    30    27    28   ar
    31    28    29   ar
    32    29    30    1
    33     3     4   ar
    34     4     5   ar
    35     5     6    1
    36     5     7   ar
    37     7     8   ar
    38     8     9   ar
    39     9    10   ar
    40    19    20    1
    41    20    15    1
    42    10     1   ar
    43    29    24   ar
    44    10     4   ar
    45    40    35   ar
    46    33    34    1
    47     6    11    1
    48     6    12    1
@<TRIPOS>MOLECULE
*****
 44 48 0 0 0
SMALL
GASTEIGER

@<TRIPOS>ATOM
      1 C         141.4898  140.3268  164.7486 C.ar    1  UNL1        0.1255
      2 N         141.3221  139.3339  163.6368 N.ar    1  UNL1       -0.2304
      3 C         142.1130  139.8197  162.4584 C.ar    1  UNL1        0.1035
      4 C         142.7693  141.1128  162.8419 C.ar    1  UNL1        0.1142
      5 C         143.6680  142.0454  162.0852 C.ar    1  UNL1        0.1432
      6 N         144.0531  141.7321  160.6698 N.pl3   1  UNL1       -0.3414
      7 N         144.1814  143.2914  162.7439 N.ar    1  UNL1       -0.2265
      8 C         143.7962  143.6047  164.1593 C.ar    1  UNL1        0.1193
      9 C         142.8976  142.6722  164.9161 C.ar    1  UNL1        0.1020
     10 N         142.3842  141.4262  164.2574 N.ar    1  UNL1       -0.2884
     11 H         143.7161  140.9143  160.2374 H       1  UNL1        0.1438
     12 H         144.6429  142.3442  160.1731 H       1  UNL1        0.1438
     13 C         141.8030  141.0309  169.8873 C.2     1  UNL1        0.2559
     14 O         143.1961  141.5642  169.7293 O.2     1  UNL1       -0.2721
     15 N         141.0281  140.5882  168.6816 N.am    1  UNL1       -0.2771
     16 C         139.6351  140.0549  168.8396 C.3     1  UNL1        0.0935
     17 C         138.8603  139.6122  167.6339 C.3     1  UNL1        0.0220
     18 C         139.4785  139.7028  166.2703 C.3     1  UNL1        0.0110
     19 C         140.8715  140.2361  166.1122 C.3     1  UNL1        0.0771
     20 C         141.6464  140.6788  167.3180 C.3     1  UNL1        0.1009
     21 C         141.1848  140.9402  171.2509 C.3     1  UNL1        0.2272
     22 C         139.6041  142.9850  170.9848 C.3     1  UNL1        0.1748
     23 O         140.4930  142.1330  171.8416 O.3     1  UNL1       -0.3417
     24 C         142.2274  139.1331  161.1297 C.ar    1  UNL1        0.0467
     25 C         141.3340  139.5400  159.9957 C.ar    1  UNL1        0.0039
     26 C         141.4484  138.8533  158.6670 C.ar    1  UNL1        0.0047
     27 C         142.4563  137.7596  158.4724 C.ar    1  UNL1        0.0559
     28 C         143.3497  137.3526  159.6064 C.ar    1  UNL1        0.0342
     29 C         143.2353  138.0393  160.9351 C.ar    1  UNL1        0.1417
     30 F         144.1288  137.6322  162.0691 F       1  UNL1       -0.2041
     31 C         142.5707  137.0729  157.1437 C.2     1  UNL1        0.2506
     32 O         143.8021  137.2580  156.3075 O.2     1  UNL1       -0.2698
     33 N         141.4536  136.2013  156.6513 N.am    1  UNL1       -0.2658
     34 H         140.6454  136.0798  157.2001 H       1  UNL1        0.1566
     35 C         141.5681  135.5146  155.3226 C.ar    1  UNL1        0.1343
     36 C         142.1854  134.1504  155.2342 C.ar    1  UNL1        0.0383
     37 C         142.2999  133.4636  153.9055 C.ar    1  UNL1        0.0757
     38 C         141.7972  134.1412  152.6653 C.ar    1  UNL1        0.0246
     39 C         141.1799  135.5055  152.7537 C.ar    1  UNL1        0.1003
     40 N         141.0654  136.1922  154.0824 N.ar    1  UNL1       -0.2290
     41 C         142.9172  132.0994  153.8171 C.3     1  UNL1        0.4187
     42 F         143.5344  130.7352  153.7287 F       1  UNL1       -0.1659
     43 F         142.0857  131.8017  152.6047 F       1  UNL1       -0.1659
     44 F         143.7487  132.3971  155.0295 F       1  UNL1       -0.1659
@<TRIPOS>BOND
     1    22    23    1
     2    23    21    1
     3    21    13    1
     4    13    14    2
     5    13    15   am
     6    15    16    1
     7    16    17    1
     8    17    18    1
     9    18    19    1
    10    19     1    1
    11     1     2   ar
    12     2     3   ar
    13     3    24    1
    14    24    25   ar
    15    25    26   ar
    16    26    27   ar
    17    27    31    1
    18    31    32    2
    19    31    33   am
    20    33    35    1
    21    35    36   ar
    22    36    37   ar
    23    37    41    1
    24    41    42    1
    25    41    43    1
    26    41    44    1
    27    37    38   ar
    28    38    39   ar
    29    39    40   ar
    30    27    28   ar
    31    28    29   ar
    32    29    30    1
    33     3     4   ar
    34     4     5   ar
    35     5     6    1
    36     5     7   ar
    37     7     8   ar
    38     8     9   ar
    39     9    10   ar
    40    19    20    1
    41    20    15    1
    42    10     1   ar
    43    29    24   ar
    44    10     4   ar
    45    40    35   ar
    46    33    34    1
    47     6    11    1
    48     6    12    1
@<TRIPOS>MOLECULE
*****
 44 48 0 0 0
SMALL
GASTEIGER

@<TRIPOS>ATOM
      1 C         141.5989  141.6658  164.5440 C.ar    1  UNL1        0.1255
      2 N         142.0321  140.5988  163.5827 N.ar    1  UNL1       -0.2304
      3 C         141.5333  140.9737  162.2186 C.ar    1  UNL1        0.1035
      4 C         140.7919  142.2723  162.3368 C.ar    1  UNL1        0.1142
      5 C         140.0851  143.1205  161.3215 C.ar    1  UNL1        0.1432
      6 N         140.0446  142.6928  159.8844 N.pl3   1  UNL1       -0.3414
      7 N         139.4188  144.3964  161.7434 N.ar    1  UNL1       -0.2265
      8 C         139.4594  144.8242  163.1805 C.ar    1  UNL1        0.1193
      9 C         140.1662  143.9759  164.1958 C.ar    1  UNL1        0.1020
     10 N         140.8324  142.7000  163.7740 N.ar    1  UNL1       -0.2884
     11 H         140.4819  141.8553  159.6075 H       1  UNL1        0.1438
     12 H         139.5807  143.2495  159.2180 H       1  UNL1        0.1438
     13 C         140.2578  140.4272  169.4089 C.2     1  UNL1        0.2559
     14 O         139.0203  139.7524  168.8960 O.2     1  UNL1       -0.2721
     15 N         141.2119  141.0743  168.4492 N.am    1  UNL1       -0.2771
     16 C         142.4494  141.7492  168.9621 C.3     1  UNL1        0.0935
     17 C         143.4034  142.3963  168.0023 C.3     1  UNL1        0.0220
     18 C         143.1198  142.3684  166.5296 C.3     1  UNL1        0.0110
     19 C         141.8824  141.6936  166.0167 C.3     1  UNL1        0.0771
     20 C         140.9284  141.0465  166.9765 C.3     1  UNL1        0.1009
     21 C         140.5414  140.4551  170.8816 C.3     1  UNL1        0.2272
     22 C         139.5910  142.8680  171.0398 C.3     1  UNL1        0.1748
     23 O         140.3206  141.7157  171.6642 O.3     1  UNL1       -0.3417
     24 C         141.7398  140.1879  160.9577 C.ar    1  UNL1        0.0467
     25 C         140.6419  139.3116  160.4318 C.ar    1  UNL1        0.0039
     26 C         140.8483  138.5259  159.1709 C.ar    1  UNL1        0.0047
     27 C         142.1527  138.6164  158.4358 C.ar    1  UNL1        0.0559
     28 C         143.2506  139.4927  158.9616 C.ar    1  UNL1        0.0342
     29 C         143.0442  140.2785  160.2226 C.ar    1  UNL1        0.1417
     30 F         144.1422  141.1548  160.7484 F       1  UNL1       -0.2041
     31 C         142.3591  137.8307  157.1748 C.2     1  UNL1        0.2506
     32 O         143.6549  137.9393  156.4272 O.2     1  UNL1       -0.2698
     33 N         141.2697  136.9364  156.6616 N.am    1  UNL1       -0.2658
     34 H         140.4192  136.8651  157.1523 H       1  UNL1        0.1566
     35 C         141.4762  136.1506  155.4006 C.ar    1  UNL1        0.1343
     36 C         141.7755  134.6825  155.4723 C.ar    1  UNL1        0.0383
     37 C         141.9820  133.8967  154.2114 C.ar    1  UNL1        0.0757
     38 C         141.8892  134.5791  152.8789 C.ar    1  UNL1        0.0246
     39 C         141.5900  136.0472  152.8071 C.ar    1  UNL1        0.1003
     40 N         141.3835  136.8330  154.0681 N.ar    1  UNL1       -0.2290
     41 C         142.2812  132.4286  154.2831 C.3     1  UNL1        0.4187
     42 F         142.5805  130.9605  154.3548 F       1  UNL1       -0.1659
     43 F         140.9507  132.1270  153.6598 F       1  UNL1       -0.1659
     44 F         143.6118  132.7303  154.9065 F       1  UNL1       -0.1659
@<TRIPOS>BOND
     1    22    23    1
     2    23    21    1
     3    21    13    1
     4    13    14    2
     5    13    15   am
     6    15    16    1
     7    16    17    1
     8    17    18    1
     9    18    19    1
    10    19     1    1
    11     1     2   ar
    12     2     3   ar
    13     3    24    1
    14    24    25   ar
    15    25    26   ar
    16    26    27   ar
    17    27    31    1
    18    31    32    2
    19    31    33   am
    20    33    35    1
    21    35    36   ar
    22    36    37   ar
    23    37    41    1
    24    41    42    1
    25    41    43    1
    26    41    44    1
    27    37    38   ar
    28    38    39   ar
    29    39    40   ar
    30    27    28   ar
    31    28    29   ar
    32    29    30    1
    33     3     4   ar
    34     4     5   ar
    35     5     6    1
    36     5     7   ar
    37     7     8   ar
    38     8     9   ar
    39     9    10   ar
    40    19    20    1
    41    20    15    1
    42    10     1   ar
    43    29    24   ar
    44    10     4   ar
    45    40    35   ar
    46    33    34    1
    47     6    11    1
    48     6    12    1
@<TRIPOS>MOLECULE
*****
 44 48 0 0 0
SMALL
GASTEIGER

@<TRIPOS>ATOM
      1 C         139.8320  140.7356  164.5382 C.ar    1  UNL1        0.1255
      2 N         140.2646  139.7118  163.5309 N.ar    1  UNL1       -0.2304
      3 C         140.1731  140.3340  162.1691 C.ar    1  UNL1        0.1035
      4 C         139.6840  141.7423  162.3348 C.ar    1  UNL1        0.1142
      5 C         139.4034  142.8307  161.3416 C.ar    1  UNL1        0.1432
      6 N         139.6142  142.5825  159.8773 N.pl3   1  UNL1       -0.3414
      7 N         138.9119  144.1673  161.8126 N.ar    1  UNL1       -0.2265
      8 C         138.7011  144.4155  163.2768 C.ar    1  UNL1        0.1193
      9 C         138.9817  143.3271  164.2700 C.ar    1  UNL1        0.1020
     10 N         139.4732  141.9905  163.7990 N.ar    1  UNL1       -0.2884
     11 H         139.9368  141.7052  159.5682 H       1  UNL1        0.1438
     12 H         139.4300  143.2969  159.2254 H       1  UNL1        0.1438
     13 C         141.7151  141.6868  169.2868 C.2     1  UNL1        0.2559
     14 O         142.7822  142.5556  168.6896 O.2     1  UNL1       -0.2721
     15 N         140.7108  141.0146  168.3983 N.am    1  UNL1       -0.2771
     16 C         139.6437  140.1459  168.9955 C.3     1  UNL1        0.0935
     17 C         138.6395  139.4737  168.1069 C.3     1  UNL1        0.0220
     18 C         138.7022  139.6703  166.6212 C.3     1  UNL1        0.0110
     19 C         139.7692  140.5390  166.0240 C.3     1  UNL1        0.0771
     20 C         140.7736  141.2112  166.9126 C.3     1  UNL1        0.1009
     21 C         141.6523  141.4902  170.7726 C.3     1  UNL1        0.2272
     22 C         139.6692  143.1631  170.9109 C.3     1  UNL1        0.1748
     23 O         140.6139  142.2101  171.5812 O.3     1  UNL1       -0.3417
     24 C         140.5114  139.6653  160.8697 C.ar    1  UNL1        0.0467
     25 C         139.4240  139.0614  160.0315 C.ar    1  UNL1        0.0039
     26 C         139.7622  138.3928  158.7321 C.ar    1  UNL1        0.0047
     27 C         141.1881  138.3279  158.2709 C.ar    1  UNL1        0.0559
     28 C         142.2756  138.9317  159.1091 C.ar    1  UNL1        0.0342
     29 C         141.9374  139.6004  160.4085 C.ar    1  UNL1        0.1417
     30 F         143.0249  140.2043  161.2467 F       1  UNL1       -0.2041
     31 C         141.5264  137.6592  156.9715 C.2     1  UNL1        0.2506
     32 O         142.8130  137.9854  156.2730 O.2     1  UNL1       -0.2698
     33 N         140.5780  136.6644  156.3708 N.am    1  UNL1       -0.2658
     34 H         139.7335  136.4503  156.8293 H       1  UNL1        0.1566
     35 C         140.9163  135.9957  155.0714 C.ar    1  UNL1        0.1343
     36 C         141.6068  134.6641  155.0707 C.ar    1  UNL1        0.0383
     37 C         141.9452  133.9954  153.7713 C.ar    1  UNL1        0.0757
     38 C         141.5931  134.6584  152.4727 C.ar    1  UNL1        0.0246
     39 C         140.9026  135.9900  152.4734 C.ar    1  UNL1        0.1003
     40 N         140.5642  136.6587  153.7727 N.ar    1  UNL1       -0.2290
     41 C         142.6357  132.6638  153.7706 C.3     1  UNL1        0.4187
     42 F         143.3262  131.3321  153.7700 F       1  UNL1       -0.1659
     43 F         143.5742  133.1499  154.8350 F       1  UNL1       -0.1659
     44 F         141.6971  132.1777  152.7063 F       1  UNL1       -0.1659
@<TRIPOS>BOND
     1    22    23    1
     2    23    21    1
     3    21    13    1
     4    13    14    2
     5    13    15   am
     6    15    16    1
     7    16    17    1
     8    17    18    1
     9    18    19    1
    10    19     1    1
    11     1     2   ar
    12     2     3   ar
    13     3    24    1
    14    24    25   ar
    15    25    26   ar
    16    26    27   ar
    17    27    31    1
    18    31    32    2
    19    31    33   am
    20    33    35    1
    21    35    36   ar
    22    36    37   ar
    23    37    41    1
    24    41    42    1
    25    41    43    1
    26    41    44    1
    27    37    38   ar
    28    38    39   ar
    29    39    40   ar
    30    27    28   ar
    31    28    29   ar
    32    29    30    1
    33     3     4   ar
    34     4     5   ar
    35     5     6    1
    36     5     7   ar
    37     7     8   ar
    38     8     9   ar
    39     9    10   ar
    40    19    20    1
    41    20    15    1
    42    10     1   ar
    43    29    24   ar
    44    10     4   ar
    45    40    35   ar
    46    33    34    1
    47     6    11    1
    48     6    12    1
