@<TRIPOS>MOLECULE
*****
 34 37 0 0 0
SMALL
GASTEIGER

@<TRIPOS>ATOM
      1 C         139.2758  138.7183  162.7719 C.ar    1  UNL1        0.0505
      2 C         139.3834  137.6076  163.7742 C.ar    1  UNL1        0.0148
      3 C         139.2467  137.9029  165.2385 C.ar    1  UNL1        0.0060
      4 C         139.0023  139.3089  165.7004 C.ar    1  UNL1        0.0553
      5 C         138.8947  140.4196  164.6981 C.ar    1  UNL1        0.0060
      6 C         139.0315  140.1244  163.2339 C.ar    1  UNL1        0.0148
      7 C         138.8655  139.6041  167.1648 C.ar    1  UNL1        0.2512
      8 N         137.9331  138.9186  168.1191 N.ar    1  UNL1       -0.1058
      9 N         138.1284  139.5274  169.4759 N.ar    1  UNL1       -0.0923
     10 C         139.1816  140.5893  169.3602 C.ar    1  UNL1        0.3086
     11 O         139.6371  140.6367  167.9319 O.2     1  UNL1       -0.4048
     12 N         139.6900  141.4523  170.4769 N.pl3   1  UNL1       -0.2871
     13 H         139.6332  141.1368  171.4077 H       1  UNL1        0.1512
     14 C         140.2848  142.7958  170.1752 C.3     1  UNL1        0.0912
     15 C         141.7663  143.0025  170.2876 C.3     1  UNL1        0.0227
     16 C         142.6700  142.5759  169.1689 C.3     1  UNL1        0.0191
     17 C         142.9313  141.1184  168.9302 C.3     1  UNL1        0.0721
     18 N         142.8362  140.5567  167.5425 N.3     1  UNL1       -0.2727
     19 C         142.7044  141.4796  166.3674 C.3     1  UNL1        0.0721
     20 C         142.6092  140.9180  164.9797 C.3     1  UNL1        0.0174
     21 C         142.6459  139.4336  164.7671 C.3     1  UNL1        0.0029
     22 C         142.7778  138.5108  165.9424 C.3     1  UNL1        0.0174
     23 C         142.8729  139.0724  167.3300 C.3     1  UNL1        0.0721
     24 O         141.7724  139.5100  161.3088 O.2     1  UNL1       -0.2697
     25 C         140.6608  138.8190  160.5761 C.2     1  UNL1        0.2517
     26 N         139.4126  138.4231  161.3076 N.am    1  UNL1       -0.2803
     27 H         138.6831  137.9695  160.8267 H       1  UNL1        0.1552
     28 C         140.7976  138.5237  159.1118 C.ar    1  UNL1        0.0811
     29 C         139.6414  138.7642  158.1870 C.ar    1  UNL1        0.0068
     30 C         139.7782  138.4690  156.7227 C.ar    1  UNL1        0.0003
     31 C         141.0712  137.9332  156.1833 C.ar    1  UNL1        0.0023
     32 C         142.2275  137.6928  157.1080 C.ar    1  UNL1        0.0298
     33 C         142.0907  137.9880  158.5723 C.ar    1  UNL1        0.1445
     34 F         143.2469  137.7475  159.4971 F       1  UNL1       -0.2040
@<TRIPOS>BOND
     1    24    25    2
     2    25    26   am
     3    26     1    1
     4     1     2   ar
     5     2     3   ar
     6     3     4   ar
     7     4     7    1
     8     7     8   ar
     9     8     9   ar
    10     9    10   ar
    11    10    12    1
    12    12    14    1
    13    14    15    1
    14    15    16    1
    15    16    17    1
    16    17    18    1
    17    18    19    1
    18    19    20    1
    19    20    21    1
    20    21    22    1
    21    22    23    1
    22    10    11   ar
    23     4     5   ar
    24     5     6   ar
    25    25    28    1
    26    28    29   ar
    27    29    30   ar
    28    30    31   ar
    29    31    32   ar
    30    32    33   ar
    31    33    34    1
    32     6     1   ar
    33    33    28   ar
    34    11     7   ar
    35    23    18    1
    36    26    27    1
    37    12    13    1
@<TRIPOS>MOLECULE
*****
 34 37 0 0 0
SMALL
GASTEIGER

@<TRIPOS>ATOM
      1 C         140.5698  139.0857  158.4749 C.ar    1  UNL1        0.0505
      2 C         141.1728  139.2953  159.8323 C.ar    1  UNL1        0.0148
      3 C         140.9787  140.6004  160.5457 C.ar    1  UNL1        0.0060
      4 C         140.1818  141.6959  159.9018 C.ar    1  UNL1        0.0553
      5 C         139.5788  141.4864  158.5445 C.ar    1  UNL1        0.0060
      6 C         139.7728  140.1813  157.8310 C.ar    1  UNL1        0.0148
      7 C         139.9877  143.0010  160.6154 C.ar    1  UNL1        0.2512
      8 N         139.7395  144.3313  159.9682 N.ar    1  UNL1       -0.1058
      9 N         139.6062  145.3574  161.0541 N.ar    1  UNL1       -0.0923
     10 C         139.7721  144.6613  162.3725 C.ar    1  UNL1        0.3086
     11 O         140.0079  143.2050  162.1013 O.2     1  UNL1       -0.4048
     12 N         139.7127  145.3080  163.7246 N.pl3   1  UNL1       -0.2871
     13 H         140.1045  146.2009  163.8609 H       1  UNL1        0.1512
     14 C         139.0562  144.5945  164.8691 C.3     1  UNL1        0.0912
     15 C         139.8021  143.5279  165.6149 C.3     1  UNL1        0.0227
     16 C         139.4450  142.0846  165.4164 C.3     1  UNL1        0.0191
     17 C         138.1863  141.7167  164.6884 C.3     1  UNL1        0.0721
     18 N         138.1830  140.5604  163.7329 N.3     1  UNL1       -0.2727
     19 C         137.5673  140.7127  162.3736 C.3     1  UNL1        0.0721
     20 C         137.5641  139.5564  161.4179 C.3     1  UNL1        0.0174
     21 C         138.1765  138.2480  161.8216 C.3     1  UNL1        0.0029
     22 C         138.7922  138.0959  163.1810 C.3     1  UNL1        0.0174
     23 C         138.7954  139.2521  164.1366 C.3     1  UNL1        0.0721
     24 O         143.2548  138.3838  157.3354 O.2     1  UNL1       -0.2697
     25 C         142.1063  137.4296  157.1916 C.2     1  UNL1        0.2517
     26 N         140.7639  137.7806  157.7614 N.am    1  UNL1       -0.2803
     27 H         140.0101  137.1544  157.6670 H       1  UNL1        0.1552
     28 C         142.3003  136.1245  156.4781 C.ar    1  UNL1        0.0811
     29 C         143.4951  135.2716  156.7863 C.ar    1  UNL1        0.0068
     30 C         143.6891  133.9666  156.0728 C.ar    1  UNL1        0.0003
     31 C         142.6882  133.5144  155.0510 C.ar    1  UNL1        0.0023
     32 C         141.4935  134.3673  154.7428 C.ar    1  UNL1        0.0298
     33 C         141.2995  135.6724  155.4564 C.ar    1  UNL1        0.1445
     34 F         140.1047  136.5253  155.1482 F       1  UNL1       -0.2040
@<TRIPOS>BOND
     1    24    25    2
     2    25    26   am
     3    26     1    1
     4     1     2   ar
     5     2     3   ar
     6     3     4   ar
     7     4     7    1
     8     7     8   ar
     9     8     9   ar
    10     9    10   ar
    11    10    12    1
    12    12    14    1
    13    14    15    1
    14    15    16    1
    15    16    17    1
    16    17    18    1
    17    18    19    1
    18    19    20    1
    19    20    21    1
    20    21    22    1
    21    22    23    1
    22    10    11   ar
    23     4     5   ar
    24     5     6   ar
    25    25    28    1
    26    28    29   ar
    27    29    30   ar
    28    30    31   ar
    29    31    32   ar
    30    32    33   ar
    31    33    34    1
    32     6     1   ar
    33    33    28   ar
    34    11     7   ar
    35    23    18    1
    36    26    27    1
    37    12    13    1
@<TRIPOS>MOLECULE
*****
 34 37 0 0 0
SMALL
GASTEIGER

@<TRIPOS>ATOM
      1 C         138.4612  142.4464  161.6672 C.ar    1  UNL1        0.0505
      2 C         138.1582  140.9794  161.7442 C.ar    1  UNL1        0.0148
      3 C         138.1803  140.2775  163.0696 C.ar    1  UNL1        0.0060
      4 C         138.5054  141.0427  164.3181 C.ar    1  UNL1        0.0553
      5 C         138.8084  142.5097  164.2412 C.ar    1  UNL1        0.0060
      6 C         138.7863  143.2116  162.9158 C.ar    1  UNL1        0.0148
      7 C         138.5276  140.3407  165.6436 C.ar    1  UNL1        0.2512
      8 N         137.7561  139.1046  165.9996 N.ar    1  UNL1       -0.1058
      9 N         138.0767  138.7515  167.4218 N.ar    1  UNL1       -0.0923
     10 C         139.0464  139.7696  167.9447 C.ar    1  UNL1        0.3086
     11 O         139.3250  140.7517  166.8458 O.2     1  UNL1       -0.4048
     12 N         139.6342  139.8001  169.3244 N.pl3   1  UNL1       -0.2871
     13 H         139.9901  138.9748  169.7262 H       1  UNL1        0.1512
     14 C         139.6797  141.0880  170.0920 C.3     1  UNL1        0.0912
     15 C         140.4173  142.2685  169.5331 C.3     1  UNL1        0.0227
     16 C         141.8374  142.5274  169.9410 C.3     1  UNL1        0.0191
     17 C         142.9435  142.3858  168.9379 C.3     1  UNL1        0.0721
     18 N         142.7499  141.5260  167.7241 N.3     1  UNL1       -0.2727
     19 C         142.5365  142.1607  166.3818 C.3     1  UNL1        0.0721
     20 C         142.3428  141.3009  165.1679 C.3     1  UNL1        0.0174
     21 C         142.3626  139.8066  165.2963 C.3     1  UNL1        0.0029
     22 C         142.5760  139.1720  166.6387 C.3     1  UNL1        0.0174
     23 C         142.7697  140.0317  167.8525 C.3     1  UNL1        0.0721
     24 O         140.9375  142.5368  159.9762 O.2     1  UNL1       -0.2697
     25 C         139.6772  143.1936  159.4962 C.2     1  UNL1        0.2517
     26 N         138.4390  143.1484  160.3417 N.am    1  UNL1       -0.2803
     27 H         137.6119  143.5794  160.0267 H       1  UNL1        0.1552
     28 C         139.6551  143.8955  158.1708 C.ar    1  UNL1        0.0811
     29 C         138.8782  143.3140  157.0270 C.ar    1  UNL1        0.0068
     30 C         138.8561  144.0159  155.7016 C.ar    1  UNL1        0.0003
     31 C         139.6109  145.2994  155.5199 C.ar    1  UNL1        0.0023
     32 C         140.3877  145.8809  156.6637 C.ar    1  UNL1        0.0298
     33 C         140.4098  145.1790  157.9891 C.ar    1  UNL1        0.1445
     34 F         141.1867  145.7605  159.1330 F       1  UNL1       -0.2040
@<TRIPOS>BOND
     1    24    25    2
     2    25    26   am
     3    26     1    1
     4     1     2   ar
     5     2     3   ar
     6     3     4   ar
     7     4     7    1
     8     7     8   ar
     9     8     9   ar
    10     9    10   ar
    11    10    12    1
    12    12    14    1
    13    14    15    1
    14    15    16    1
    15    16    17    1
    16    17    18    1
    17    18    19    1
    18    19    20    1
    19    20    21    1
    20    21    22    1
    21    22    23    1
    22    10    11   ar
    23     4     5   ar
    24     5     6   ar
    25    25    28    1
    26    28    29   ar
    27    29    30   ar
    28    30    31   ar
    29    31    32   ar
    30    32    33   ar
    31    33    34    1
    32     6     1   ar
    33    33    28   ar
    34    11     7   ar
    35    23    18    1
    36    26    27    1
    37    12    13    1
@<TRIPOS>MOLECULE
*****
 34 37 0 0 0
SMALL
GASTEIGER

@<TRIPOS>ATOM
      1 C         140.2153  144.4469  160.0049 C.ar    1  UNL1        0.0505
      2 C         140.6355  143.0087  159.9347 C.ar    1  UNL1        0.0148
      3 C         141.0558  142.2885  161.1816 C.ar    1  UNL1        0.0060
      4 C         141.0557  143.0065  162.4986 C.ar    1  UNL1        0.0553
      5 C         140.6354  144.4447  162.5688 C.ar    1  UNL1        0.0060
      6 C         140.2152  145.1649  161.3219 C.ar    1  UNL1        0.0148
      7 C         141.4760  142.2862  163.7455 C.ar    1  UNL1        0.2512
      8 N         141.8248  142.9246  165.0573 N.ar    1  UNL1       -0.1058
      9 N         142.1856  141.8341  166.0220 N.ar    1  UNL1       -0.0923
     10 C         142.0598  140.5218  165.3064 C.ar    1  UNL1        0.3086
     11 O         141.6212  140.8013  163.8994 O.2     1  UNL1       -0.4048
     12 N         142.3258  139.1678  165.8945 N.pl3   1  UNL1       -0.2871
     13 H         142.4570  139.0699  166.8653 H       1  UNL1        0.1512
     14 C         142.3920  137.9629  165.0035 C.3     1  UNL1        0.0912
     15 C         141.1705  137.1181  164.7926 C.3     1  UNL1        0.0227
     16 C         139.9977  137.6705  164.0381 C.3     1  UNL1        0.0191
     17 C         138.9461  138.4600  164.7598 C.3     1  UNL1        0.0721
     18 N         138.4637  139.7618  164.1918 N.3     1  UNL1       -0.2727
     19 C         138.1157  139.8618  162.7362 C.3     1  UNL1        0.0721
     20 C         137.6333  141.1636  162.1681 C.3     1  UNL1        0.0174
     21 C         137.4989  142.3654  163.0557 C.3     1  UNL1        0.0029
     22 C         137.8469  142.2652  164.5113 C.3     1  UNL1        0.0174
     23 C         138.3293  140.9634  165.0793 C.3     1  UNL1        0.0721
     24 O         142.2860  145.6407  158.1919 O.2     1  UNL1       -0.2697
     25 C         140.8304  145.7641  157.8516 C.2     1  UNL1        0.2517
     26 N         139.7950  145.1672  158.7580 N.am    1  UNL1       -0.2803
     27 H         138.8396  145.2481  158.5346 H       1  UNL1        0.1552
     28 C         140.4101  146.4843  156.6047 C.ar    1  UNL1        0.0811
     29 C         139.3359  147.5293  156.6681 C.ar    1  UNL1        0.0068
     30 C         138.9157  148.2495  155.4213 C.ar    1  UNL1        0.0003
     31 C         139.5697  147.9248  154.1110 C.ar    1  UNL1        0.0023
     32 C         140.6439  146.8798  154.0476 C.ar    1  UNL1        0.0298
     33 C         141.0641  146.1596  155.2944 C.ar    1  UNL1        0.1445
     34 F         142.1384  145.1146  155.2310 F       1  UNL1       -0.2040
@<TRIPOS>BOND
     1    24    25    2
     2    25    26   am
     3    26     1    1
     4     1     2   ar
     5     2     3   ar
     6     3     4   ar
     7     4     7    1
     8     7     8   ar
     9     8     9   ar
    10     9    10   ar
    11    10    12    1
    12    12    14    1
    13    14    15    1
    14    15    16    1
    15    16    17    1
    16    17    18    1
    17    18    19    1
    18    19    20    1
    19    20    21    1
    20    21    22    1
    21    22    23    1
    22    10    11   ar
    23     4     5   ar
    24     5     6   ar
    25    25    28    1
    26    28    29   ar
    27    29    30   ar
    28    30    31   ar
    29    31    32   ar
    30    32    33   ar
    31    33    34    1
    32     6     1   ar
    33    33    28   ar
    34    11     7   ar
    35    23    18    1
    36    26    27    1
    37    12    13    1
@<TRIPOS>MOLECULE
*****
 34 37 0 0 0
SMALL
GASTEIGER

@<TRIPOS>ATOM
      1 C         142.7771  138.1213  158.0140 C.ar    1  UNL1        0.0505
      2 C         142.9428  139.5451  157.5720 C.ar    1  UNL1        0.0148
      3 C         143.3696  140.5916  158.5582 C.ar    1  UNL1        0.0060
      4 C         143.6307  140.2144  159.9863 C.ar    1  UNL1        0.0553
      5 C         143.4650  138.7906  160.4282 C.ar    1  UNL1        0.0060
      6 C         143.0382  137.7441  159.4421 C.ar    1  UNL1        0.0148
      7 C         144.0575  141.2610  160.9725 C.ar    1  UNL1        0.2512
      8 N         144.9856  141.0532  162.1325 N.ar    1  UNL1       -0.1058
      9 N         145.1329  142.3628  162.8487 N.ar    1  UNL1       -0.0923
     10 C         144.2958  143.3801  162.1313 C.ar    1  UNL1        0.3086
     11 O         143.6313  142.6991  160.9718 O.2     1  UNL1       -0.4048
     12 N         144.1492  144.8248  162.5075 N.pl3   1  UNL1       -0.2871
     13 H         144.5353  145.5247  161.9328 H       1  UNL1        0.1512
     14 C         143.4142  145.2030  163.7592 C.3     1  UNL1        0.0912
     15 C         141.9153  145.1557  163.7922 C.3     1  UNL1        0.0227
     16 C         141.2152  143.9656  164.3783 C.3     1  UNL1        0.0191
     17 C         141.9558  143.0344  165.2916 C.3     1  UNL1        0.0721
     18 N         142.2197  141.6200  164.8674 N.3     1  UNL1       -0.2727
     19 C         143.3147  140.8322  165.5235 C.3     1  UNL1        0.0721
     20 C         143.5786  139.4178  165.0994 C.3     1  UNL1        0.0174
     21 C         142.7476  138.7912  164.0192 C.3     1  UNL1        0.0029
     22 C         141.6526  139.5791  163.3632 C.3     1  UNL1        0.0174
     23 C         141.3887  140.9934  163.7873 C.3     1  UNL1        0.0721
     24 O         144.6684  137.2255  155.8644 O.2     1  UNL1       -0.2697
     25 C         143.2960  136.6268  155.9530 C.2     1  UNL1        0.2517
     26 N         142.3503  137.0747  157.0278 N.am    1  UNL1       -0.2803
     27 H         141.4495  136.6817  157.0859 H       1  UNL1        0.1552
     28 C         142.8691  135.5802  154.9669 C.ar    1  UNL1        0.0811
     29 C         142.1598  135.9811  153.7075 C.ar    1  UNL1        0.0068
     30 C         141.7330  134.9345  152.7214 C.ar    1  UNL1        0.0003
     31 C         142.0156  133.4869  152.9947 C.ar    1  UNL1        0.0023
     32 C         142.7249  133.0860  154.2540 C.ar    1  UNL1        0.0298
     33 C         143.1517  134.1326  155.2401 C.ar    1  UNL1        0.1445
     34 F         143.8611  133.7316  156.4996 F       1  UNL1       -0.2040
@<TRIPOS>BOND
     1    24    25    2
     2    25    26   am
     3    26     1    1
     4     1     2   ar
     5     2     3   ar
     6     3     4   ar
     7     4     7    1
     8     7     8   ar
     9     8     9   ar
    10     9    10   ar
    11    10    12    1
    12    12    14    1
    13    14    15    1
    14    15    16    1
    15    16    17    1
    16    17    18    1
    17    18    19    1
    18    19    20    1
    19    20    21    1
    20    21    22    1
    21    22    23    1
    22    10    11   ar
    23     4     5   ar
    24     5     6   ar
    25    25    28    1
    26    28    29   ar
    27    29    30   ar
    28    30    31   ar
    29    31    32   ar
    30    32    33   ar
    31    33    34    1
    32     6     1   ar
    33    33    28   ar
    34    11     7   ar
    35    23    18    1
    36    26    27    1
    37    12    13    1
@<TRIPOS>MOLECULE
*****
 34 37 0 0 0
SMALL
GASTEIGER

@<TRIPOS>ATOM
      1 C         138.4711  142.3306  161.6044 C.ar    1  UNL1        0.0505
      2 C         138.2265  143.1232  162.8541 C.ar    1  UNL1        0.0148
      3 C         138.2414  142.4410  164.1899 C.ar    1  UNL1        0.0060
      4 C         138.5009  140.9661  164.2759 C.ar    1  UNL1        0.0553
      5 C         138.7455  140.1734  163.0262 C.ar    1  UNL1        0.0060
      6 C         138.7306  140.8557  161.6904 C.ar    1  UNL1        0.0148
      7 C         138.5158  140.2838  165.6117 C.ar    1  UNL1        0.2512
      8 N         137.7379  139.0564  165.9836 N.ar    1  UNL1       -0.1058
      9 N         138.0525  138.7232  167.4119 N.ar    1  UNL1       -0.0923
     10 C         139.0249  139.7448  167.9227 C.ar    1  UNL1        0.3086
     11 O         139.3112  140.7093  166.8102 O.2     1  UNL1       -0.4048
     12 N         139.6085  139.7933  169.3037 N.pl3   1  UNL1       -0.2871
     13 H         139.0588  139.5382  170.0796 H       1  UNL1        0.1512
     14 C         141.0296  140.2303  169.5025 C.3     1  UNL1        0.0912
     15 C         142.1382  139.5321  168.7720 C.3     1  UNL1        0.0227
     16 C         142.6422  140.0823  167.4708 C.3     1  UNL1        0.0191
     17 C         142.9678  141.5414  167.3494 C.3     1  UNL1        0.0721
     18 N         142.9940  142.1944  165.9992 N.3     1  UNL1       -0.2727
     19 C         144.0452  143.2157  165.6804 C.3     1  UNL1        0.0721
     20 C         144.0715  143.8687  164.3301 C.3     1  UNL1        0.0174
     21 C         143.0465  143.5003  163.2988 C.3     1  UNL1        0.0029
     22 C         141.9953  142.4789  163.6177 C.3     1  UNL1        0.0174
     23 C         141.9690  141.8260  164.9679 C.3     1  UNL1        0.0721
     24 O         141.0482  143.1797  160.3248 O.2     1  UNL1       -0.2697
     25 C         139.7447  143.4373  159.6288 C.2     1  UNL1        0.2517
     26 N         138.4561  143.0128  160.2685 N.am    1  UNL1       -0.2803
     27 H         137.6006  143.1819  159.8117 H       1  UNL1        0.1552
     28 C         139.7298  144.1196  158.2929 C.ar    1  UNL1        0.0811
     29 C         140.3090  145.4955  158.1470 C.ar    1  UNL1        0.0068
     30 C         140.2941  146.1776  156.8112 C.ar    1  UNL1        0.0003
     31 C         139.6999  145.4839  155.6214 C.ar    1  UNL1        0.0023
     32 C         139.1207  144.1080  155.7673 C.ar    1  UNL1        0.0298
     33 C         139.1356  143.4258  157.1031 C.ar    1  UNL1        0.1445
     34 F         138.5564  142.0499  157.2491 F       1  UNL1       -0.2040
@<TRIPOS>BOND
     1    24    25    2
     2    25    26   am
     3    26     1    1
     4     1     2   ar
     5     2     3   ar
     6     3     4   ar
     7     4     7    1
     8     7     8   ar
     9     8     9   ar
    10     9    10   ar
    11    10    12    1
    12    12    14    1
    13    14    15    1
    14    15    16    1
    15    16    17    1
    16    17    18    1
    17    18    19    1
    18    19    20    1
    19    20    21    1
    20    21    22    1
    21    22    23    1
    22    10    11   ar
    23     4     5   ar
    24     5     6   ar
    25    25    28    1
    26    28    29   ar
    27    29    30   ar
    28    30    31   ar
    29    31    32   ar
    30    32    33   ar
    31    33    34    1
    32     6     1   ar
    33    33    28   ar
    34    11     7   ar
    35    23    18    1
    36    26    27    1
    37    12    13    1
@<TRIPOS>MOLECULE
*****
 34 37 0 0 0
SMALL
GASTEIGER

@<TRIPOS>ATOM
      1 C         142.1341  138.6009  159.1590 C.ar    1  UNL1        0.0505
      2 C         140.9590  139.5246  159.0335 C.ar    1  UNL1        0.0148
      3 C         140.9587  140.8401  159.7541 C.ar    1  UNL1        0.0060
      4 C         142.1336  141.2319  160.6003 C.ar    1  UNL1        0.0553
      5 C         143.3088  140.3083  160.7258 C.ar    1  UNL1        0.0060
      6 C         143.3091  138.9928  160.0052 C.ar    1  UNL1        0.0148
      7 C         142.1333  142.5475  161.3210 C.ar    1  UNL1        0.2512
      8 N         143.1193  143.6608  161.1244 N.ar    1  UNL1       -0.1058
      9 N         142.7424  144.7821  162.0466 N.ar    1  UNL1       -0.0923
     10 C         141.5234  144.3618  162.8132 C.ar    1  UNL1        0.3086
     11 O         141.1470  142.9808  162.3648 O.2     1  UNL1       -0.4048
     12 N         140.8067  145.1792  163.8469 N.pl3   1  UNL1       -0.2871
     13 H         141.1308  146.0809  164.0729 H       1  UNL1        0.1512
     14 C         139.5963  144.6226  164.5361 C.3     1  UNL1        0.0912
     15 C         138.3362  144.3797  163.7593 C.3     1  UNL1        0.0227
     16 C         137.7952  142.9872  163.6241 C.3     1  UNL1        0.0191
     17 C         138.1399  141.9460  164.6472 C.3     1  UNL1        0.0721
     18 N         138.4574  140.5453  164.2144 N.3     1  UNL1       -0.2727
     19 C         138.4945  139.4382  165.2257 C.3     1  UNL1        0.0721
     20 C         138.8120  138.0374  164.7930 C.3     1  UNL1        0.0174
     21 C         139.0924  137.7438  163.3490 C.3     1  UNL1        0.0029
     22 C         139.0553  138.8511  162.3377 C.3     1  UNL1        0.0174
     23 C         138.7378  140.2518  162.7704 C.3     1  UNL1        0.0721
     24 O         143.7841  138.2499  156.6781 O.2     1  UNL1       -0.2697
     25 C         142.9594  137.1099  157.1979 C.2     1  UNL1        0.2517
     26 N         142.1345  137.2853  158.4383 N.am    1  UNL1       -0.2803
     27 H         141.5932  136.5371  158.7795 H       1  UNL1        0.1552
     28 C         142.9597  135.7943  156.4772 C.ar    1  UNL1        0.0811
     29 C         142.6631  135.7440  155.0077 C.ar    1  UNL1        0.0068
     30 C         142.6635  134.4285  154.2871 C.ar    1  UNL1        0.0003
     31 C         142.9604  133.1632  155.0360 C.ar    1  UNL1        0.0023
     32 C         143.2569  133.2134  156.5055 C.ar    1  UNL1        0.0298
     33 C         143.2566  134.5290  157.2261 C.ar    1  UNL1        0.1445
     34 F         143.5532  134.5793  158.6957 F       1  UNL1       -0.2040
@<TRIPOS>BOND
     1    24    25    2
     2    25    26   am
     3    26     1    1
     4     1     2   ar
     5     2     3   ar
     6     3     4   ar
     7     4     7    1
     8     7     8   ar
     9     8     9   ar
    10     9    10   ar
    11    10    12    1
    12    12    14    1
    13    14    15    1
    14    15    16    1
    15    16    17    1
    16    17    18    1
    17    18    19    1
    18    19    20    1
    19    20    21    1
    20    21    22    1
    21    22    23    1
    22    10    11   ar
    23     4     5   ar
    24     5     6   ar
    25    25    28    1
    26    28    29   ar
    27    29    30   ar
    28    30    31   ar
    29    31    32   ar
    30    32    33   ar
    31    33    34    1
    32     6     1   ar
    33    33    28   ar
    34    11     7   ar
    35    23    18    1
    36    26    27    1
    37    12    13    1
@<TRIPOS>MOLECULE
*****
 34 37 0 0 0
SMALL
GASTEIGER

@<TRIPOS>ATOM
      1 C         138.6901  139.3992  163.3362 C.ar    1  UNL1        0.0505
      2 C         138.4030  140.7253  163.9757 C.ar    1  UNL1        0.0148
      3 C         138.4816  140.8717  165.4664 C.ar    1  UNL1        0.0060
      4 C         138.8473  139.6919  166.3177 C.ar    1  UNL1        0.0553
      5 C         139.1343  138.3658  165.6782 C.ar    1  UNL1        0.0060
      6 C         139.0557  138.2194  164.1874 C.ar    1  UNL1        0.0148
      7 C         138.9258  139.8384  167.8085 C.ar    1  UNL1        0.2512
      8 N         137.9408  139.2954  168.8009 N.ar    1  UNL1       -0.1058
      9 N         138.4093  139.6749  170.1743 N.ar    1  UNL1       -0.0923
     10 C         139.6841  140.4525  170.0307 C.ar    1  UNL1        0.3086
     11 O         140.0033  140.5535  168.5686 O.2     1  UNL1       -0.4048
     12 N         140.4969  141.0280  171.1524 N.pl3   1  UNL1       -0.2871
     13 H         140.3044  140.7697  172.0827 H       1  UNL1        0.1512
     14 C         141.6030  141.9970  170.8567 C.3     1  UNL1        0.0912
     15 C         142.8008  141.5511  170.0714 C.3     1  UNL1        0.0227
     16 C         143.2139  142.3038  168.8415 C.3     1  UNL1        0.0191
     17 C         143.0689  141.6696  167.4900 C.3     1  UNL1        0.0721
     18 N         142.8773  142.5284  166.2751 N.3     1  UNL1       -0.2727
     19 C         144.0693  143.0880  165.5568 C.3     1  UNL1        0.0721
     20 C         143.8778  143.9467  164.3419 C.3     1  UNL1        0.0174
     21 C         142.4943  144.2459  163.8454 C.3     1  UNL1        0.0029
     22 C         141.3024  143.6862  164.5638 C.3     1  UNL1        0.0174
     23 C         141.4939  142.8275  165.7786 C.3     1  UNL1        0.0721
     24 O         140.9901  140.2730  161.6197 O.2     1  UNL1       -0.2697
     25 C         139.7615  139.6896  160.9872 C.2     1  UNL1        0.2517
     26 N         138.6115  139.2527  161.8454 N.am    1  UNL1       -0.2803
     27 H         137.8051  138.8698  161.4302 H       1  UNL1        0.1552
     28 C         139.6829  139.5432  159.4964 C.ar    1  UNL1        0.0811
     29 C         138.6139  140.2615  158.7275 C.ar    1  UNL1        0.0068
     30 C         138.5353  140.1150  157.2368 C.ar    1  UNL1        0.0003
     31 C         139.5258  139.2503  156.5149 C.ar    1  UNL1        0.0023
     32 C         140.5949  138.5320  157.2837 C.ar    1  UNL1        0.0298
     33 C         140.6734  138.6784  158.7745 C.ar    1  UNL1        0.1445
     34 F         141.7425  137.9601  159.5434 F       1  UNL1       -0.2040
@<TRIPOS>BOND
     1    24    25    2
     2    25    26   am
     3    26     1    1
     4     1     2   ar
     5     2     3   ar
     6     3     4   ar
     7     4     7    1
     8     7     8   ar
     9     8     9   ar
    10     9    10   ar
    11    10    12    1
    12    12    14    1
    13    14    15    1
    14    15    16    1
    15    16    17    1
    16    17    18    1
    17    18    19    1
    18    19    20    1
    19    20    21    1
    20    21    22    1
    21    22    23    1
    22    10    11   ar
    23     4     5   ar
    24     5     6   ar
    25    25    28    1
    26    28    29   ar
    27    29    30   ar
    28    30    31   ar
    29    31    32   ar
    30    32    33   ar
    31    33    34    1
    32     6     1   ar
    33    33    28   ar
    34    11     7   ar
    35    23    18    1
    36    26    27    1
    37    12    13    1
@<TRIPOS>MOLECULE
*****
 34 37 0 0 0
SMALL
GASTEIGER

@<TRIPOS>ATOM
      1 C         141.6515  144.7684  159.5817 C.ar    1  UNL1        0.0505
      2 C         140.8988  145.3481  160.7425 C.ar    1  UNL1        0.0148
      3 C         140.8676  144.6213  162.0542 C.ar    1  UNL1        0.0060
      4 C         141.5890  143.3149  162.2052 C.ar    1  UNL1        0.0553
      5 C         142.3417  142.7352  161.0444 C.ar    1  UNL1        0.0060
      6 C         142.3729  143.4620  159.7327 C.ar    1  UNL1        0.0148
      7 C         141.5578  142.5881  163.5171 C.ar    1  UNL1        0.2512
      8 N         141.4526  143.2207  164.8731 N.ar    1  UNL1       -0.1058
      9 N         141.4560  142.1248  165.8974 N.ar    1  UNL1       -0.0923
     10 C         141.5633  140.8149  165.1742 C.ar    1  UNL1        0.3086
     11 O         141.6261  141.1013  163.7032 O.2     1  UNL1       -0.4048
     12 N         141.6010  139.4571  165.8105 N.pl3   1  UNL1       -0.2871
     13 H         141.6204  139.3734  166.7913 H       1  UNL1        0.1512
     14 C         141.6092  138.2267  164.9526 C.3     1  UNL1        0.0912
     15 C         140.3440  137.4477  164.7463 C.3     1  UNL1        0.0227
     16 C         139.0310  138.1648  164.6377 C.3     1  UNL1        0.0191
     17 C         138.6251  138.7935  163.3378 C.3     1  UNL1        0.0721
     18 N         138.3264  140.2621  163.2758 N.3     1  UNL1       -0.2727
     19 C         138.1172  141.0389  164.5419 C.3     1  UNL1        0.0721
     20 C         137.8184  142.5076  164.4801 C.3     1  UNL1        0.0174
     21 C         137.7289  143.1995  163.1522 C.3     1  UNL1        0.0029
     22 C         137.9381  142.4226  161.8862 C.3     1  UNL1        0.0174
     23 C         138.2369  140.9540  161.9480 C.3     1  UNL1        0.0721
     24 O         139.5441  144.2271  157.5163 O.2     1  UNL1       -0.2697
     25 C         140.6291  145.2245  157.2372 C.2     1  UNL1        0.2517
     26 N         141.6828  145.4952  158.2698 N.am    1  UNL1       -0.2803
     27 H         142.3949  146.1499  158.0866 H       1  UNL1        0.1552
     28 C         140.6603  145.9513  155.9253 C.ar    1  UNL1        0.0811
     29 C         141.5502  145.4655  154.8198 C.ar    1  UNL1        0.0068
     30 C         141.5814  146.1923  153.5080 C.ar    1  UNL1        0.0003
     31 C         140.7228  147.4048  153.3018 C.ar    1  UNL1        0.0023
     32 C         139.8330  147.8906  154.4073 C.ar    1  UNL1        0.0298
     33 C         139.8017  147.1638  155.7190 C.ar    1  UNL1        0.1445
     34 F         138.9119  147.6496  156.8246 F       1  UNL1       -0.2040
@<TRIPOS>BOND
     1    24    25    2
     2    25    26   am
     3    26     1    1
     4     1     2   ar
     5     2     3   ar
     6     3     4   ar
     7     4     7    1
     8     7     8   ar
     9     8     9   ar
    10     9    10   ar
    11    10    12    1
    12    12    14    1
    13    14    15    1
    14    15    16    1
    15    16    17    1
    16    17    18    1
    17    18    19    1
    18    19    20    1
    19    20    21    1
    20    21    22    1
    21    22    23    1
    22    10    11   ar
    23     4     5   ar
    24     5     6   ar
    25    25    28    1
    26    28    29   ar
    27    29    30   ar
    28    30    31   ar
    29    31    32   ar
    30    32    33   ar
    31    33    34    1
    32     6     1   ar
    33    33    28   ar
    34    11     7   ar
    35    23    18    1
    36    26    27    1
    37    12    13    1
