@<TRIPOS>MOLECULE
*****
 39 42 0 0 0
SMALL
GASTEIGER

@<TRIPOS>ATOM
      1 C         142.3610  137.6148  158.3771 C.ar    1  UNL1        0.1459
      2 C         141.0473  138.3060  158.1624 C.ar    1  UNL1        0.0391
      3 C         140.3053  138.8858  159.3299 C.ar    1  UNL1        0.0228
      4 C         140.8770  138.7743  160.7122 C.ar    1  UNL1        0.0894
      5 N         140.3775  139.2451  162.0460 N.ar    1  UNL1       -0.2239
      6 C         141.3826  138.8448  163.0849 C.ar    1  UNL1        0.1657
      7 S         142.5033  138.1267  162.3933 S.2     1  UNL1       -0.0513
      8 C         142.1908  138.0831  160.9269 C.ar    1  UNL1        0.0528
      9 C         142.9328  137.5033  159.7593 C.ar    1  UNL1        0.0456
     10 N         141.2844  139.1152  164.5572 N.am    1  UNL1       -0.2606
     11 C         141.6083  140.4785  165.0926 C.2     1  UNL1        0.2509
     12 O         142.0305  141.5713  164.1558 O.2     1  UNL1       -0.2698
     13 H         141.0073  138.3980  165.1720 H       1  UNL1        0.1571
     14 C         141.5101  140.7489  166.5647 C.ar    1  UNL1        0.0536
     15 C         142.6601  141.3834  167.2891 C.ar    1  UNL1        0.0084
     16 C         142.5619  141.6538  168.7612 C.ar    1  UNL1        0.0715
     17 C         141.3135  141.2897  169.5090 C.ar    1  UNL1        0.0077
     18 C         140.1635  140.6552  168.7846 C.ar    1  UNL1        0.0715
     19 C         140.2618  140.3848  167.3124 C.ar    1  UNL1        0.0084
     20 C         143.7119  142.2884  169.4856 C.3     1  UNL1        0.4186
     21 F         144.8620  142.9229  170.2100 F       1  UNL1       -0.1659
     22 F         144.1717  142.9180  168.2041 F       1  UNL1       -0.1659
     23 F         143.2521  141.6587  170.7671 F       1  UNL1       -0.1659
     24 C         138.9152  140.2911  169.5323 C.3     1  UNL1        0.4186
     25 F         137.6669  139.9270  170.2800 F       1  UNL1       -0.1659
     26 F         139.3630  141.1332  170.6900 F       1  UNL1       -0.1659
     27 F         138.4673  139.4489  168.3746 F       1  UNL1       -0.1659
     28 O         143.1031  137.0350  157.2094 O.3     1  UNL1       -0.4534
     29 C         143.3584  133.0803  156.9950 C.ar    1  UNL1        0.1375
     30 C         143.6148  134.4964  157.4184 C.ar    1  UNL1        0.0612
     31 C         142.8467  135.6190  156.7861 C.ar    1  UNL1        0.1485
     32 C         141.8222  135.3256  155.7305 C.ar    1  UNL1        0.0582
     33 C         141.5658  133.9096  155.3071 C.ar    1  UNL1        0.1021
     34 N         142.3339  132.7870  155.9394 N.ar    1  UNL1       -0.2391
     35 C         144.2484  129.4938  158.4422 C.3     1  UNL1        0.1110
     36 N         143.4803  130.6164  157.8100 N.am    1  UNL1       -0.2979
     37 C         144.1265  131.9577  157.6273 C.2     1  UNL1        0.2637
     38 O         145.5407  132.1764  158.0768 O.2     1  UNL1       -0.2685
     39 H         142.5521  130.4728  157.5149 H       1  UNL1        0.1498
@<TRIPOS>BOND
     1    35    36    1
     2    36    37   am
     3    37    38    2
     4    37    29    1
     5    29    30   ar
     6    30    31   ar
     7    31    28    1
     8    28     1    1
     9     1     2   ar
    10     2     3   ar
    11     3     4   ar
    12     4     5   ar
    13     5     6   ar
    14     6    10    1
    15    10    11   am
    16    11    12    2
    17    11    14    1
    18    14    15   ar
    19    15    16   ar
    20    16    20    1
    21    20    21    1
    22    20    22    1
    23    20    23    1
    24    16    17   ar
    25    17    18   ar
    26    18    24    1
    27    24    25    1
    28    24    26    1
    29    24    27    1
    30    18    19   ar
    31     6     7   ar
    32     7     8   ar
    33     8     9   ar
    34    31    32   ar
    35    32    33   ar
    36    33    34   ar
    37    34    29   ar
    38     9     1   ar
    39     8     4   ar
    40    19    14   ar
    41    36    39    1
    42    10    13    1
@<TRIPOS>MOLECULE
*****
 39 42 0 0 0
SMALL
GASTEIGER

@<TRIPOS>ATOM
      1 C         142.2615  137.7732  158.3487 C.ar    1  UNL1        0.1459
      2 C         140.9487  138.4914  158.2451 C.ar    1  UNL1        0.0391
      3 C         140.2945  139.0399  159.4784 C.ar    1  UNL1        0.0228
      4 C         140.9531  138.8702  160.8154 C.ar    1  UNL1        0.0894
      5 N         140.5497  139.3003  162.1947 N.ar    1  UNL1       -0.2239
      6 C         141.6133  138.8478  163.1508 C.ar    1  UNL1        0.1657
      7 S         142.6739  138.1382  162.3624 S.2     1  UNL1       -0.0513
      8 C         142.2658  138.1521  160.9190 C.ar    1  UNL1        0.0528
      9 C         142.9200  137.6035  159.6857 C.ar    1  UNL1        0.0456
     10 N         141.6158  139.0666  164.6348 N.am    1  UNL1       -0.2606
     11 C         141.9154  140.4267  165.1919 C.2     1  UNL1        0.2509
     12 O         142.2125  141.5680  164.2650 O.2     1  UNL1       -0.2698
     13 H         141.4208  138.3175  165.2431 H       1  UNL1        0.1571
     14 C         141.9180  140.6454  166.6758 C.ar    1  UNL1        0.0536
     15 C         141.4064  141.9357  167.2446 C.ar    1  UNL1        0.0084
     16 C         141.4089  142.1545  168.7285 C.ar    1  UNL1        0.0715
     17 C         141.9231  141.0830  169.6438 C.ar    1  UNL1        0.0077
     18 C         142.4347  139.7927  169.0750 C.ar    1  UNL1        0.0715
     19 C         142.4321  139.5740  167.5910 C.ar    1  UNL1        0.0084
     20 C         140.8973  143.4447  169.2973 C.3     1  UNL1        0.4186
     21 F         140.3857  144.7350  169.8661 F       1  UNL1       -0.1659
     22 F         139.8936  143.5365  168.1864 F       1  UNL1       -0.1659
     23 F         141.9011  143.3530  170.4082 F       1  UNL1       -0.1659
     24 C         142.9489  138.7212  169.9901 C.3     1  UNL1        0.4186
     25 F         143.4630  137.6498  170.9053 F       1  UNL1       -0.1659
     26 F         142.6668  139.5974  171.1745 F       1  UNL1       -0.1659
     27 F         143.2309  137.8450  168.8058 F       1  UNL1       -0.1659
     28 O         142.9157  137.2246  157.1154 O.3     1  UNL1       -0.4534
     29 C         143.2358  133.2733  156.9279 C.ar    1  UNL1        0.1375
     30 C         143.4761  134.6972  157.3343 C.ar    1  UNL1        0.0612
     31 C         142.6755  135.8009  156.7090 C.ar    1  UNL1        0.1485
     32 C         141.6346  135.4807  155.6774 C.ar    1  UNL1        0.0582
     33 C         141.3944  134.0570  155.2711 C.ar    1  UNL1        0.1021
     34 N         142.1950  132.9533  155.8963 N.ar    1  UNL1       -0.2391
     35 C         144.2439  129.6952  158.3173 C.3     1  UNL1        0.1110
     36 N         143.4433  130.7989  157.6921 N.am    1  UNL1       -0.2979
     37 C         144.0364  132.1696  157.5531 C.2     1  UNL1        0.2637
     38 O         145.4300  132.4367  158.0392 O.2     1  UNL1       -0.2685
     39 H         142.5286  130.6236  157.3730 H       1  UNL1        0.1498
@<TRIPOS>BOND
     1    35    36    1
     2    36    37   am
     3    37    38    2
     4    37    29    1
     5    29    30   ar
     6    30    31   ar
     7    31    28    1
     8    28     1    1
     9     1     2   ar
    10     2     3   ar
    11     3     4   ar
    12     4     5   ar
    13     5     6   ar
    14     6    10    1
    15    10    11   am
    16    11    12    2
    17    11    14    1
    18    14    15   ar
    19    15    16   ar
    20    16    20    1
    21    20    21    1
    22    20    22    1
    23    20    23    1
    24    16    17   ar
    25    17    18   ar
    26    18    24    1
    27    24    25    1
    28    24    26    1
    29    24    27    1
    30    18    19   ar
    31     6     7   ar
    32     7     8   ar
    33     8     9   ar
    34    31    32   ar
    35    32    33   ar
    36    33    34   ar
    37    34    29   ar
    38     9     1   ar
    39     8     4   ar
    40    19    14   ar
    41    36    39    1
    42    10    13    1
@<TRIPOS>MOLECULE
*****
 39 42 0 0 0
SMALL
GASTEIGER

@<TRIPOS>ATOM
      1 C         142.2569  137.7280  158.2095 C.ar    1  UNL1        0.1459
      2 C         140.8957  138.3546  158.1430 C.ar    1  UNL1        0.0391
      3 C         140.2412  138.8610  159.3940 C.ar    1  UNL1        0.0228
      4 C         140.9479  138.7408  160.7116 C.ar    1  UNL1        0.0894
      5 N         140.5559  139.1465  162.1016 N.ar    1  UNL1       -0.2239
      6 C         141.6749  138.7706  163.0271 C.ar    1  UNL1        0.1657
      7 S         142.7584  138.1326  162.2092 S.2     1  UNL1       -0.0513
      8 C         142.3091  138.1142  160.7782 C.ar    1  UNL1        0.0528
      9 C         142.9636  137.6078  159.5271 C.ar    1  UNL1        0.0456
     10 N         141.7051  138.9935  164.5102 N.am    1  UNL1       -0.2606
     11 C         141.5974  140.3842  165.0618 C.2     1  UNL1        0.2509
     12 O         141.4595  141.5520  164.1304 O.2     1  UNL1       -0.2698
     13 H         141.7956  138.2271  165.1214 H       1  UNL1        0.1571
     14 C         141.6276  140.6072  166.5448 C.ar    1  UNL1        0.0536
     15 C         142.1615  139.5395  167.4531 C.ar    1  UNL1        0.0084
     16 C         142.1917  139.7625  168.9361 C.ar    1  UNL1        0.0715
     17 C         141.6880  141.0532  169.5109 C.ar    1  UNL1        0.0077
     18 C         141.1541  142.1209  168.6026 C.ar    1  UNL1        0.0715
     19 C         141.1239  141.8979  167.1196 C.ar    1  UNL1        0.0084
     20 C         142.7256  138.6948  169.8444 C.3     1  UNL1        0.4186
     21 F         143.2595  137.6271  170.7527 F       1  UNL1       -0.1659
     22 F         143.3020  137.9760  168.6607 F       1  UNL1       -0.1659
     23 F         142.1492  139.4135  171.0281 F       1  UNL1       -0.1659
     24 C         140.6504  143.4116  169.1774 C.3     1  UNL1        0.4186
     25 F         140.1467  144.7023  169.7521 F       1  UNL1       -0.1659
     26 F         139.9484  143.7125  167.8864 F       1  UNL1       -0.1659
     27 F         141.3523  143.1108  170.4684 F       1  UNL1       -0.1659
     28 O         142.9114  137.2216  156.9584 O.3     1  UNL1       -0.4534
     29 C         143.1674  133.2981  156.4194 C.ar    1  UNL1        0.1375
     30 C         143.4636  134.6833  156.9129 C.ar    1  UNL1        0.0612
     31 C         142.6153  135.8364  156.4649 C.ar    1  UNL1        0.1485
     32 C         141.4708  135.6043  155.5234 C.ar    1  UNL1        0.0582
     33 C         141.1746  134.2192  155.0299 C.ar    1  UNL1        0.1021
     34 N         142.0229  133.0660  155.4779 N.ar    1  UNL1       -0.2391
     35 C         144.2928  129.9532  158.2348 C.3     1  UNL1        0.1110
     36 N         143.4445  131.1064  157.7868 N.am    1  UNL1       -0.2979
     37 C         144.0157  132.1449  156.8673 C.2     1  UNL1        0.2637
     38 O         145.4350  132.0303  156.3959 O.2     1  UNL1       -0.2685
     39 H         142.5130  131.1816  158.0962 H       1  UNL1        0.1498
@<TRIPOS>BOND
     1    35    36    1
     2    36    37   am
     3    37    38    2
     4    37    29    1
     5    29    30   ar
     6    30    31   ar
     7    31    28    1
     8    28     1    1
     9     1     2   ar
    10     2     3   ar
    11     3     4   ar
    12     4     5   ar
    13     5     6   ar
    14     6    10    1
    15    10    11   am
    16    11    12    2
    17    11    14    1
    18    14    15   ar
    19    15    16   ar
    20    16    20    1
    21    20    21    1
    22    20    22    1
    23    20    23    1
    24    16    17   ar
    25    17    18   ar
    26    18    24    1
    27    24    25    1
    28    24    26    1
    29    24    27    1
    30    18    19   ar
    31     6     7   ar
    32     7     8   ar
    33     8     9   ar
    34    31    32   ar
    35    32    33   ar
    36    33    34   ar
    37    34    29   ar
    38     9     1   ar
    39     8     4   ar
    40    19    14   ar
    41    36    39    1
    42    10    13    1
@<TRIPOS>MOLECULE
*****
 39 42 0 0 0
SMALL
GASTEIGER

@<TRIPOS>ATOM
      1 C         140.1522  144.1031  156.0948 C.ar    1  UNL1        0.1459
      2 C         138.8640  143.3648  155.8814 C.ar    1  UNL1        0.0391
      3 C         138.1651  142.7246  157.0440 C.ar    1  UNL1        0.0228
      4 C         138.7543  142.8228  158.4199 C.ar    1  UNL1        0.0894
      5 N         138.2959  142.2969  159.7479 N.ar    1  UNL1       -0.2239
      6 C         139.3008  142.7103  160.7820 C.ar    1  UNL1        0.1657
      7 S         140.3802  143.4915  160.0931 S.2     1  UNL1       -0.0513
      8 C         140.0425  143.5610  158.6333 C.ar    1  UNL1        0.0528
      9 C         140.7414  144.2012  157.4707 C.ar    1  UNL1        0.0456
     10 N         139.2375  142.3973  162.2477 N.am    1  UNL1       -0.2606
     11 C         139.3894  140.9816  162.7195 C.2     1  UNL1        0.2509
     12 O         139.6046  139.8788  161.7257 O.2     1  UNL1       -0.2698
     13 H         139.0962  143.1211  162.8999 H       1  UNL1        0.1571
     14 C         139.3260  140.6686  164.1851 C.ar    1  UNL1        0.0536
     15 C         138.6647  139.4068  164.6547 C.ar    1  UNL1        0.0084
     16 C         138.6014  139.0938  166.1203 C.ar    1  UNL1        0.0715
     17 C         139.1994  140.0427  167.1164 C.ar    1  UNL1        0.0077
     18 C         139.8607  141.3045  166.6468 C.ar    1  UNL1        0.0715
     19 C         139.9240  141.6174  165.1811 C.ar    1  UNL1        0.0084
     20 C         137.9400  137.8320  166.5898 C.3     1  UNL1        0.4186
     21 F         137.2787  136.5702  167.0594 F       1  UNL1       -0.1659
     22 F         137.2403  138.6011  167.6710 F       1  UNL1       -0.1659
     23 F         138.6397  137.0630  165.5086 F       1  UNL1       -0.1659
     24 C         140.4587  142.2533  167.6428 C.3     1  UNL1        0.4186
     25 F         141.0567  143.2021  168.6388 F       1  UNL1       -0.1659
     26 F         140.8238  143.1909  166.5304 F       1  UNL1       -0.1659
     27 F         140.0936  141.3157  168.7553 F       1  UNL1       -0.1659
     28 O         140.8512  144.7433  154.9322 O.3     1  UNL1       -0.4534
     29 C         139.4312  148.4452  155.1046 C.ar    1  UNL1        0.1375
     30 C         139.7566  147.0325  155.4901 C.ar    1  UNL1        0.0612
     31 C         140.5258  146.1559  154.5468 C.ar    1  UNL1        0.1485
     32 C         140.9697  146.6920  153.2180 C.ar    1  UNL1        0.0582
     33 C         140.6444  148.1046  152.8325 C.ar    1  UNL1        0.1021
     34 N         139.8751  148.9812  153.7759 N.ar    1  UNL1       -0.2391
     35 C         137.7182  149.7875  158.4233 C.3     1  UNL1        0.1110
     36 N         138.4874  148.9109  157.4800 N.am    1  UNL1       -0.2979
     37 C         138.6620  149.3218  156.0479 C.2     1  UNL1        0.2637
     38 O         138.0673  150.6092  155.5592 O.2     1  UNL1       -0.2685
     39 H         138.8777  148.0659  157.8007 H       1  UNL1        0.1498
@<TRIPOS>BOND
     1    35    36    1
     2    36    37   am
     3    37    38    2
     4    37    29    1
     5    29    30   ar
     6    30    31   ar
     7    31    28    1
     8    28     1    1
     9     1     2   ar
    10     2     3   ar
    11     3     4   ar
    12     4     5   ar
    13     5     6   ar
    14     6    10    1
    15    10    11   am
    16    11    12    2
    17    11    14    1
    18    14    15   ar
    19    15    16   ar
    20    16    20    1
    21    20    21    1
    22    20    22    1
    23    20    23    1
    24    16    17   ar
    25    17    18   ar
    26    18    24    1
    27    24    25    1
    28    24    26    1
    29    24    27    1
    30    18    19   ar
    31     6     7   ar
    32     7     8   ar
    33     8     9   ar
    34    31    32   ar
    35    32    33   ar
    36    33    34   ar
    37    34    29   ar
    38     9     1   ar
    39     8     4   ar
    40    19    14   ar
    41    36    39    1
    42    10    13    1
@<TRIPOS>MOLECULE
*****
 39 42 0 0 0
SMALL
GASTEIGER

@<TRIPOS>ATOM
      1 C         142.3035  138.6318  157.8353 C.ar    1  UNL1        0.1459
      2 C         140.8525  138.2523  157.8519 C.ar    1  UNL1        0.0391
      3 C         140.0318  138.4800  159.0866 C.ar    1  UNL1        0.0228
      4 C         140.6622  139.0872  160.3048 C.ar    1  UNL1        0.0894
      5 N         140.1092  139.4283  161.6568 N.ar    1  UNL1       -0.2239
      6 C         141.2186  140.0187  162.4758 C.ar    1  UNL1        0.1657
      7 S         142.4572  140.0424  161.6299 S.2     1  UNL1       -0.0513
      8 C         142.1133  139.4667  160.2882 C.ar    1  UNL1        0.0528
      9 C         142.9339  139.2390  159.0534 C.ar    1  UNL1        0.0456
     10 N         141.1088  140.5007  163.8920 N.am    1  UNL1       -0.2606
     11 C         141.6005  139.6397  165.0176 C.2     1  UNL1        0.2509
     12 O         142.2020  138.2967  164.7269 O.2     1  UNL1       -0.2698
     13 H         140.7139  141.3822  164.0827 H       1  UNL1        0.1571
     14 C         141.4906  140.1217  166.4337 C.ar    1  UNL1        0.0536
     15 C         140.2258  139.8946  167.2074 C.ar    1  UNL1        0.0084
     16 C         140.1160  140.3766  168.6235 C.ar    1  UNL1        0.0715
     17 C         141.2711  141.0858  169.2662 C.ar    1  UNL1        0.0077
     18 C         142.5359  141.3129  168.4925 C.ar    1  UNL1        0.0715
     19 C         142.6457  140.8309  167.0763 C.ar    1  UNL1        0.0084
     20 C         138.8511  140.1494  169.3972 C.3     1  UNL1        0.4186
     21 F         137.5862  139.9222  170.1708 F       1  UNL1       -0.1659
     22 F         138.2947  139.3537  168.2538 F       1  UNL1       -0.1659
     23 F         139.4075  140.9451  170.5405 F       1  UNL1       -0.1659
     24 C         143.6910  142.0221  169.1351 C.3     1  UNL1        0.4186
     25 F         144.8460  142.7312  169.7776 F       1  UNL1       -0.1659
     26 F         143.5011  141.2047  170.3784 F       1  UNL1       -0.1659
     27 F         143.8809  142.8395  167.8917 F       1  UNL1       -0.1659
     28 O         143.1243  138.4041  156.6005 O.3     1  UNL1       -0.4534
     29 C         143.4375  134.5863  155.5630 C.ar    1  UNL1        0.1375
     30 C         143.5879  135.8611  156.3390 C.ar    1  UNL1        0.0612
     31 C         142.9739  137.1293  155.8245 C.ar    1  UNL1        0.1485
     32 C         142.2094  137.1226  154.5339 C.ar    1  UNL1        0.0582
     33 C         142.0591  135.8478  153.7579 C.ar    1  UNL1        0.1021
     34 N         142.6731  134.5797  154.2724 N.ar    1  UNL1       -0.2391
     35 C         145.3214  132.0277  157.9409 C.3     1  UNL1        0.1110
     36 N         144.7074  133.2959  157.4264 N.am    1  UNL1       -0.2979
     37 C         144.0515  133.3181  156.0775 C.2     1  UNL1        0.2637
     38 O         144.0096  132.0723  155.2433 O.2     1  UNL1       -0.2685
     39 H         144.7349  134.1136  157.9739 H       1  UNL1        0.1498
@<TRIPOS>BOND
     1    35    36    1
     2    36    37   am
     3    37    38    2
     4    37    29    1
     5    29    30   ar
     6    30    31   ar
     7    31    28    1
     8    28     1    1
     9     1     2   ar
    10     2     3   ar
    11     3     4   ar
    12     4     5   ar
    13     5     6   ar
    14     6    10    1
    15    10    11   am
    16    11    12    2
    17    11    14    1
    18    14    15   ar
    19    15    16   ar
    20    16    20    1
    21    20    21    1
    22    20    22    1
    23    20    23    1
    24    16    17   ar
    25    17    18   ar
    26    18    24    1
    27    24    25    1
    28    24    26    1
    29    24    27    1
    30    18    19   ar
    31     6     7   ar
    32     7     8   ar
    33     8     9   ar
    34    31    32   ar
    35    32    33   ar
    36    33    34   ar
    37    34    29   ar
    38     9     1   ar
    39     8     4   ar
    40    19    14   ar
    41    36    39    1
    42    10    13    1
@<TRIPOS>MOLECULE
*****
 39 42 0 0 0
SMALL
GASTEIGER

@<TRIPOS>ATOM
      1 C         141.9840  137.0267  154.8520 C.ar    1  UNL1        0.1459
      2 C         143.2621  137.7321  155.1966 C.ar    1  UNL1        0.0391
      3 C         143.3663  138.5152  156.4716 C.ar    1  UNL1        0.0228
      4 C         142.1923  138.5929  157.4021 C.ar    1  UNL1        0.0894
      5 N         141.9999  139.2836  158.7197 N.ar    1  UNL1       -0.2239
      6 C         140.6029  139.0050  159.1894 C.ar    1  UNL1        0.1657
      7 S         139.9319  138.1422  158.1621 S.2     1  UNL1       -0.0513
      8 C         140.9142  137.8875  157.0575 C.ar    1  UNL1        0.0528
      9 C         140.8101  137.1044  155.7824 C.ar    1  UNL1        0.0456
     10 N         139.9852  139.5020  160.4628 N.am    1  UNL1       -0.2606
     11 C         140.2377  138.7773  161.7516 C.2     1  UNL1        0.2509
     12 O         141.1080  137.5556  161.7670 O.2     1  UNL1       -0.2698
     13 H         139.4140  140.3039  160.4527 H       1  UNL1        0.1571
     14 C         139.6201  139.2742  163.0250 C.ar    1  UNL1        0.0536
     15 C         139.0812  138.2979  164.0281 C.ar    1  UNL1        0.0084
     16 C         138.4636  138.7948  165.3015 C.ar    1  UNL1        0.0715
     17 C         138.3848  140.2682  165.5718 C.ar    1  UNL1        0.0077
     18 C         138.9237  141.2446  164.5687 C.ar    1  UNL1        0.0715
     19 C         139.5414  140.7476  163.2953 C.ar    1  UNL1        0.0084
     20 C         137.9247  137.8184  166.3046 C.3     1  UNL1        0.4186
     21 F         137.3857  136.8420  167.3077 F       1  UNL1       -0.1659
     22 F         137.3111  138.9493  167.0758 F       1  UNL1       -0.1659
     23 F         138.5382  136.6875  165.5334 F       1  UNL1       -0.1659
     24 C         138.8450  142.7179  164.8390 C.3     1  UNL1        0.4186
     25 F         138.7663  144.1912  165.1093 F       1  UNL1       -0.1659
     26 F         140.3429  142.7932  164.8647 F       1  UNL1       -0.1659
     27 F         137.3471  142.6426  164.8132 F       1  UNL1       -0.1659
     28 O         141.8798  136.2436  153.5768 O.3     1  UNL1       -0.4534
     29 C         143.1278  132.6603  154.7398 C.ar    1  UNL1        0.1375
     30 C         142.8611  134.1364  154.7374 C.ar    1  UNL1        0.0612
     31 C         142.1466  134.7675  153.5793 C.ar    1  UNL1        0.1485
     32 C         141.6988  133.9225  152.4236 C.ar    1  UNL1        0.0582
     33 C         141.9656  132.4465  152.4261 C.ar    1  UNL1        0.1021
     34 N         142.6801  131.8154  153.5842 N.ar    1  UNL1       -0.2391
     35 C         145.4457  132.2300  157.9324 C.3     1  UNL1        0.1110
     36 N         144.7312  132.8611  156.7743 N.am    1  UNL1       -0.2979
     37 C         143.8424  132.0292  155.8979 C.2     1  UNL1        0.2637
     38 O         143.6681  130.5663  156.1796 O.2     1  UNL1       -0.2685
     39 H         144.8455  133.8213  156.5894 H       1  UNL1        0.1498
@<TRIPOS>BOND
     1    35    36    1
     2    36    37   am
     3    37    38    2
     4    37    29    1
     5    29    30   ar
     6    30    31   ar
     7    31    28    1
     8    28     1    1
     9     1     2   ar
    10     2     3   ar
    11     3     4   ar
    12     4     5   ar
    13     5     6   ar
    14     6    10    1
    15    10    11   am
    16    11    12    2
    17    11    14    1
    18    14    15   ar
    19    15    16   ar
    20    16    20    1
    21    20    21    1
    22    20    22    1
    23    20    23    1
    24    16    17   ar
    25    17    18   ar
    26    18    24    1
    27    24    25    1
    28    24    26    1
    29    24    27    1
    30    18    19   ar
    31     6     7   ar
    32     7     8   ar
    33     8     9   ar
    34    31    32   ar
    35    32    33   ar
    36    33    34   ar
    37    34    29   ar
    38     9     1   ar
    39     8     4   ar
    40    19    14   ar
    41    36    39    1
    42    10    13    1
@<TRIPOS>MOLECULE
*****
 39 42 0 0 0
SMALL
GASTEIGER

@<TRIPOS>ATOM
      1 C         142.5794  140.7855  164.5215 C.ar    1  UNL1        0.1459
      2 C         144.0146  141.0412  164.1685 C.ar    1  UNL1        0.0391
      3 C         144.6488  140.3037  163.0266 C.ar    1  UNL1        0.0228
      4 C         143.8479  139.3106  162.2379 C.ar    1  UNL1        0.0894
      5 N         144.1999  138.4393  161.0686 N.ar    1  UNL1       -0.2239
      6 C         142.9822  137.6452  160.6991 C.ar    1  UNL1        0.1657
      7 S         141.8776  138.0257  161.6400 S.2     1  UNL1       -0.0513
      8 C         142.4126  139.0549  162.5910 C.ar    1  UNL1        0.0528
      9 C         141.7784  139.7924  163.7328 C.ar    1  UNL1        0.0456
     10 N         142.8860  136.6460  159.5845 N.am    1  UNL1       -0.2606
     11 C         142.9390  137.1065  158.1579 C.2     1  UNL1        0.2509
     12 O         143.0883  138.5661  157.8459 O.2     1  UNL1       -0.2698
     13 H         142.7880  135.6881  159.7892 H       1  UNL1        0.1571
     14 C         142.8427  136.1074  157.0432 C.ar    1  UNL1        0.0536
     15 C         143.6503  134.8444  157.0962 C.ar    1  UNL1        0.0084
     16 C         143.5541  133.8453  155.9816 C.ar    1  UNL1        0.0715
     17 C         142.6502  134.1091  154.8139 C.ar    1  UNL1        0.0077
     18 C         141.8426  135.3721  154.7609 C.ar    1  UNL1        0.0715
     19 C         141.9389  136.3712  155.8756 C.ar    1  UNL1        0.0084
     20 C         144.3616  132.5824  156.0346 C.3     1  UNL1        0.4186
     21 F         145.1692  131.3194  156.0876 F       1  UNL1       -0.1659
     22 F         143.8113  132.1745  154.7001 F       1  UNL1       -0.1659
     23 F         144.9119  132.9903  157.3690 F       1  UNL1       -0.1659
     24 C         140.9388  135.6359  153.5932 C.3     1  UNL1        0.4186
     25 F         140.0350  135.8998  152.4256 F       1  UNL1       -0.1659
     26 F         139.8984  136.1864  154.5230 F       1  UNL1       -0.1659
     27 F         141.9792  135.0855  152.6634 F       1  UNL1       -0.1659
     28 O         141.9450  141.5230  165.6634 O.3     1  UNL1       -0.4534
     29 C         143.3368  141.9481  169.3557 C.ar    1  UNL1        0.1375
     30 C         142.9414  142.2676  167.9444 C.ar    1  UNL1        0.0612
     31 C         142.3404  141.2035  167.0746 C.ar    1  UNL1        0.1485
     32 C         142.1348  139.8198  167.6162 C.ar    1  UNL1        0.0582
     33 C         142.5301  139.5003  169.0274 C.ar    1  UNL1        0.1021
     34 N         143.1311  140.5644  169.8971 N.ar    1  UNL1       -0.2391
     35 C         146.0272  144.2571  171.1389 C.3     1  UNL1        0.1110
     36 N         145.4262  143.1930  170.2692 N.am    1  UNL1       -0.2979
     37 C         143.9377  143.0122  170.2254 C.2     1  UNL1        0.2637
     38 O         143.0504  143.8955  171.0514 O.2     1  UNL1       -0.2685
     39 H         146.0087  142.6132  169.7270 H       1  UNL1        0.1498
@<TRIPOS>BOND
     1    35    36    1
     2    36    37   am
     3    37    38    2
     4    37    29    1
     5    29    30   ar
     6    30    31   ar
     7    31    28    1
     8    28     1    1
     9     1     2   ar
    10     2     3   ar
    11     3     4   ar
    12     4     5   ar
    13     5     6   ar
    14     6    10    1
    15    10    11   am
    16    11    12    2
    17    11    14    1
    18    14    15   ar
    19    15    16   ar
    20    16    20    1
    21    20    21    1
    22    20    22    1
    23    20    23    1
    24    16    17   ar
    25    17    18   ar
    26    18    24    1
    27    24    25    1
    28    24    26    1
    29    24    27    1
    30    18    19   ar
    31     6     7   ar
    32     7     8   ar
    33     8     9   ar
    34    31    32   ar
    35    32    33   ar
    36    33    34   ar
    37    34    29   ar
    38     9     1   ar
    39     8     4   ar
    40    19    14   ar
    41    36    39    1
    42    10    13    1
@<TRIPOS>MOLECULE
*****
 39 42 0 0 0
SMALL
GASTEIGER

@<TRIPOS>ATOM
      1 C         143.2261  137.7692  156.5473 C.ar    1  UNL1        0.1459
      2 C         143.7532  139.1632  156.3781 C.ar    1  UNL1        0.0391
      3 C         143.6025  140.1617  157.4872 C.ar    1  UNL1        0.0228
      4 C         142.9246  139.7662  158.7655 C.ar    1  UNL1        0.0894
      5 N         142.6325  140.5282  160.0242 N.ar    1  UNL1       -0.2239
      6 C         141.9249  139.6050  160.9712 C.ar    1  UNL1        0.1657
      7 S         141.7796  138.2725  160.2979 S.2     1  UNL1       -0.0513
      8 C         142.3974  138.3722  158.9347 C.ar    1  UNL1        0.0528
      9 C         142.5482  137.3736  157.8256 C.ar    1  UNL1        0.0456
     10 N         141.4464  139.9532  162.3496 N.am    1  UNL1       -0.2606
     11 C         142.2215  139.4968  163.5501 C.2     1  UNL1        0.2509
     12 O         143.4750  138.6924  163.3721 O.2     1  UNL1       -0.2698
     13 H         140.6237  140.4811  162.4664 H       1  UNL1        0.1571
     14 C         141.7432  139.8449  164.9284 C.ar    1  UNL1        0.0536
     15 C         142.6079  140.6676  165.8370 C.ar    1  UNL1        0.0084
     16 C         142.1296  141.0157  167.2154 C.ar    1  UNL1        0.0715
     17 C         140.7864  140.5411  167.6852 C.ar    1  UNL1        0.0077
     18 C         139.9216  139.7185  166.7767 C.ar    1  UNL1        0.0715
     19 C         140.4000  139.3704  165.3982 C.ar    1  UNL1        0.0084
     20 C         142.9944  141.8383  168.1239 C.3     1  UNL1        0.4186
     21 F         143.8591  142.6609  169.0325 F       1  UNL1       -0.1659
     22 F         142.3968  141.1504  169.3155 F       1  UNL1       -0.1659
     23 F         143.5919  142.5261  166.9324 F       1  UNL1       -0.1659
     24 C         138.5785  139.2440  167.2465 C.3     1  UNL1        0.4186
     25 F         137.2353  138.7695  167.7163 F       1  UNL1       -0.1659
     26 F         138.8560  139.8071  168.6088 F       1  UNL1       -0.1659
     27 F         138.3008  138.6808  165.8842 F       1  UNL1       -0.1659
     28 O         143.3768  136.7705  155.4381 O.3     1  UNL1       -0.4534
     29 C         143.3519  132.9960  156.6637 C.ar    1  UNL1        0.1375
     30 C         143.7873  134.4166  156.4581 C.ar    1  UNL1        0.0612
     31 C         142.9414  135.3499  155.6437 C.ar    1  UNL1        0.1485
     32 C         141.6600  134.8626  155.0348 C.ar    1  UNL1        0.0582
     33 C         141.2247  133.4420  155.2403 C.ar    1  UNL1        0.1021
     34 N         142.0706  132.5087  156.0548 N.ar    1  UNL1       -0.2391
     35 C         144.5703  129.7321  158.5645 C.3     1  UNL1        0.1110
     36 N         143.7244  130.6655  157.7501 N.am    1  UNL1       -0.2979
     37 C         144.1978  132.0626  157.4781 C.2     1  UNL1        0.2637
     38 O         145.5171  132.5264  158.0207 O.2     1  UNL1       -0.2685
     39 H         142.8585  130.3611  157.3940 H       1  UNL1        0.1498
@<TRIPOS>BOND
     1    35    36    1
     2    36    37   am
     3    37    38    2
     4    37    29    1
     5    29    30   ar
     6    30    31   ar
     7    31    28    1
     8    28     1    1
     9     1     2   ar
    10     2     3   ar
    11     3     4   ar
    12     4     5   ar
    13     5     6   ar
    14     6    10    1
    15    10    11   am
    16    11    12    2
    17    11    14    1
    18    14    15   ar
    19    15    16   ar
    20    16    20    1
    21    20    21    1
    22    20    22    1
    23    20    23    1
    24    16    17   ar
    25    17    18   ar
    26    18    24    1
    27    24    25    1
    28    24    26    1
    29    24    27    1
    30    18    19   ar
    31     6     7   ar
    32     7     8   ar
    33     8     9   ar
    34    31    32   ar
    35    32    33   ar
    36    33    34   ar
    37    34    29   ar
    38     9     1   ar
    39     8     4   ar
    40    19    14   ar
    41    36    39    1
    42    10    13    1
@<TRIPOS>MOLECULE
*****
 39 42 0 0 0
SMALL
GASTEIGER

@<TRIPOS>ATOM
      1 C         140.0857  144.6693  157.0382 C.ar    1  UNL1        0.1459
      2 C         141.0954  145.5679  157.6886 C.ar    1  UNL1        0.0391
      3 C         141.3184  145.4968  159.1702 C.ar    1  UNL1        0.0228
      4 C         140.5319  144.5270  160.0013 C.ar    1  UNL1        0.0894
      5 N         140.5345  144.2332  161.4723 N.ar    1  UNL1       -0.2239
      6 C         139.5265  143.1529  161.7310 C.ar    1  UNL1        0.1657
      7 S         138.9008  142.7792  160.4199 S.2     1  UNL1       -0.0513
      8 C         139.5222  143.6284  159.3509 C.ar    1  UNL1        0.0528
      9 C         139.2992  143.6996  157.8693 C.ar    1  UNL1        0.0456
     10 N         139.2011  142.5519  163.0663 N.am    1  UNL1       -0.2606
     11 C         140.2017  141.6737  163.7573 C.2     1  UNL1        0.2509
     12 O         141.5276  141.3964  163.1130 O.2     1  UNL1       -0.2698
     13 H         138.3309  142.7339  163.4892 H       1  UNL1        0.1571
     14 C         139.8764  141.0727  165.0925 C.ar    1  UNL1        0.0536
     15 C         139.1216  139.7786  165.1688 C.ar    1  UNL1        0.0084
     16 C         138.7963  139.1776  166.5040 C.ar    1  UNL1        0.0715
     17 C         139.2258  139.8707  167.7631 C.ar    1  UNL1        0.0077
     18 C         139.9806  141.1647  167.6869 C.ar    1  UNL1        0.0715
     19 C         140.3059  141.7657  166.3516 C.ar    1  UNL1        0.0084
     20 C         138.0415  137.8836  166.5802 C.3     1  UNL1        0.4186
     21 F         137.2867  136.5896  166.6564 F       1  UNL1       -0.1659
     22 F         138.8660  137.3363  165.4530 F       1  UNL1       -0.1659
     23 F         137.2170  138.4309  167.7074 F       1  UNL1       -0.1659
     24 C         140.4101  141.8577  168.9459 C.3     1  UNL1        0.4186
     25 F         140.8396  142.5507  170.2050 F       1  UNL1       -0.1659
     26 F         140.7725  143.0770  168.1511 F       1  UNL1       -0.1659
     27 F         140.0476  140.6383  169.7409 F       1  UNL1       -0.1659
     28 O         139.8626  144.7405  155.5565 O.3     1  UNL1       -0.4534
     29 C         139.6203  148.5896  154.6209 C.ar    1  UNL1        0.1375
     30 C         139.4225  147.2924  155.3478 C.ar    1  UNL1        0.0612
     31 C         140.0604  146.0376  154.8297 C.ar    1  UNL1        0.1485
     32 C         140.8961  146.0799  153.5847 C.ar    1  UNL1        0.0582
     33 C         141.0939  147.3770  152.8579 C.ar    1  UNL1        0.1021
     34 N         140.4560  148.6319  153.3760 N.ar    1  UNL1       -0.2391
     35 C         138.4416  152.3711  154.8675 C.3     1  UNL1        0.1110
     36 N         139.0794  151.1162  154.3494 N.am    1  UNL1       -0.2979
     37 C         138.9825  149.8445  155.1390 C.2     1  UNL1        0.2637
     38 O         138.2476  149.8276  156.4465 O.2     1  UNL1       -0.2685
     39 H         139.5617  151.1273  153.4912 H       1  UNL1        0.1498
@<TRIPOS>BOND
     1    35    36    1
     2    36    37   am
     3    37    38    2
     4    37    29    1
     5    29    30   ar
     6    30    31   ar
     7    31    28    1
     8    28     1    1
     9     1     2   ar
    10     2     3   ar
    11     3     4   ar
    12     4     5   ar
    13     5     6   ar
    14     6    10    1
    15    10    11   am
    16    11    12    2
    17    11    14    1
    18    14    15   ar
    19    15    16   ar
    20    16    20    1
    21    20    21    1
    22    20    22    1
    23    20    23    1
    24    16    17   ar
    25    17    18   ar
    26    18    24    1
    27    24    25    1
    28    24    26    1
    29    24    27    1
    30    18    19   ar
    31     6     7   ar
    32     7     8   ar
    33     8     9   ar
    34    31    32   ar
    35    32    33   ar
    36    33    34   ar
    37    34    29   ar
    38     9     1   ar
    39     8     4   ar
    40    19    14   ar
    41    36    39    1
    42    10    13    1
