@<TRIPOS>MOLECULE
*****
 33 37 0 0 0
SMALL
GASTEIGER

@<TRIPOS>ATOM
      1 N         140.0182  138.7452  161.7302 N.3     1  UNL1       -0.2695
      2 C         140.0514  138.1988  163.1267 C.3     1  UNL1        0.0939
      3 C         141.3008  138.3164  163.9486 C.3     1  UNL1        0.1107
      4 N         142.5169  138.9804  163.3739 N.am    1  UNL1       -0.2764
      5 C         143.7661  139.0979  164.1958 C.2     1  UNL1        0.2318
      6 O         144.9822  139.7619  163.6212 O.2     1  UNL1       -0.2744
      7 C         142.4836  139.5268  161.9773 C.3     1  UNL1        0.1107
      8 C         141.2343  139.4092  161.1555 C.3     1  UNL1        0.0939
      9 C         138.7690  138.6277  160.9083 C.3     1  UNL1        0.0769
     10 C         137.7011  139.6758  161.0128 C.3     1  UNL1        0.0433
     11 C         138.9824  142.1198  159.8357 C.3     1  UNL1        0.0305
     12 C         138.5638  142.1124  161.2761 C.ar    1  UNL1       -0.0260
     13 C         137.9231  140.8904  161.8647 C.ar    1  UNL1       -0.0249
     14 C         137.5044  140.8830  163.3050 C.ar    1  UNL1       -0.0043
     15 C         137.7263  142.0975  164.1569 C.ar    1  UNL1        0.0059
     16 C         138.3670  143.3195  163.5684 C.ar    1  UNL1        0.0748
     17 C         138.7857  143.3269  162.1280 C.ar    1  UNL1        0.0233
     18 C         139.3888  144.6671  161.8275 C.3     1  UNL1        0.2352
     19 O         139.3428  145.4879  163.0821 O.3     1  UNL1       -0.4404
     20 C         138.7113  144.6550  164.1580 C.2     1  UNL1        0.3413
     21 O         138.4670  145.0827  165.5749 O.2     1  UNL1       -0.2449
     22 C         143.7993  138.5515  165.5924 C.3     1  UNL1        0.1309
     23 C         143.1204  139.2944  166.7046 C.ar    1  UNL1        0.0683
     24 C         142.4605  140.6136  166.4321 C.ar    1  UNL1        0.0168
     25 C         141.7816  141.3566  167.5444 C.ar    1  UNL1        0.0221
     26 C         141.7625  140.7804  168.9291 C.ar    1  UNL1        0.1053
     27 C         142.4224  139.4611  169.2016 C.ar    1  UNL1        0.1176
     28 N         143.1013  138.7181  168.0894 N.ar    1  UNL1       -0.2461
     29 N         141.0836  141.5232  170.0414 N.ar    1  UNL1       -0.1871
     30 C         140.0467  142.5953  169.8815 C.ar    1  UNL1        0.2259
     31 N         139.6447  143.0591  171.2502 N.ar    1  UNL1       -0.1045
     32 N         140.4332  142.2737  172.2560 N.ar    1  UNL1       -0.0222
     33 N         141.3224  141.3245  171.5088 N.ar    1  UNL1       -0.0384
@<TRIPOS>BOND
     1    11    12    1
     2    12    13   ar
     3    13    10    1
     4    10     9    1
     5     9     1    1
     6     1     2    1
     7     2     3    1
     8     3     4    1
     9     4     5   am
    10     5     6    2
    11     5    22    1
    12    22    23    1
    13    23    24   ar
    14    24    25   ar
    15    25    26   ar
    16    26    29    1
    17    29    30   ar
    18    30    31   ar
    19    31    32   ar
    20    32    33   ar
    21    26    27   ar
    22    27    28   ar
    23     4     7    1
    24     7     8    1
    25    13    14   ar
    26    14    15   ar
    27    15    16   ar
    28    16    17   ar
    29    17    18    1
    30    18    19    1
    31    19    20    1
    32    20    21    2
    33    17    12   ar
    34     8     1    1
    35    20    16    1
    36    28    23   ar
    37    33    29   ar
@<TRIPOS>MOLECULE
*****
 33 37 0 0 0
SMALL
GASTEIGER

@<TRIPOS>ATOM
      1 N         140.0515  138.1512  162.2922 N.3     1  UNL1       -0.2695
      2 C         140.0973  137.7659  163.7411 C.3     1  UNL1        0.0939
      3 C         141.3565  137.9673  164.5312 C.3     1  UNL1        0.1107
      4 N         142.5696  138.5539  163.8723 N.am    1  UNL1       -0.2764
      5 C         143.8286  138.7553  164.6625 C.2     1  UNL1        0.2318
      6 O         145.0418  139.3419  164.0036 O.2     1  UNL1       -0.2744
      7 C         142.5237  138.9392  162.4234 C.3     1  UNL1        0.1107
      8 C         141.2646  138.7379  161.6333 C.3     1  UNL1        0.0939
      9 C         138.7924  137.9499  161.5020 C.3     1  UNL1        0.0769
     10 C         137.6541  138.9161  161.6459 C.3     1  UNL1        0.0433
     11 C         137.7639  140.0900  164.4045 C.3     1  UNL1        0.0305
     12 C         137.9855  140.9661  163.2073 C.ar    1  UNL1       -0.0260
     13 C         137.9306  140.3792  161.8279 C.ar    1  UNL1       -0.0249
     14 C         138.1522  141.2552  160.6307 C.ar    1  UNL1       -0.0043
     15 C         138.4287  142.7182  160.8127 C.ar    1  UNL1        0.0059
     16 C         138.4836  143.3051  162.1920 C.ar    1  UNL1        0.0748
     17 C         138.2620  142.4291  163.3893 C.ar    1  UNL1        0.0233
     18 C         138.3755  143.2840  164.6166 C.3     1  UNL1        0.2352
     19 O         138.6672  144.6884  164.1778 O.3     1  UNL1       -0.4404
     20 C         138.7340  144.7015  162.6793 C.2     1  UNL1        0.3413
     21 O         139.0039  145.9004  161.8192 O.2     1  UNL1       -0.2449
     22 C         143.8745  138.3699  166.1114 C.3     1  UNL1        0.1309
     23 C         143.1326  139.1858  167.1282 C.ar    1  UNL1        0.0683
     24 C         142.4500  140.4565  166.7168 C.ar    1  UNL1        0.0168
     25 C         141.7080  141.2725  167.7336 C.ar    1  UNL1        0.0221
     26 C         141.6487  140.8177  169.1617 C.ar    1  UNL1        0.1053
     27 C         142.3314  139.5470  169.5731 C.ar    1  UNL1        0.1176
     28 N         143.0733  138.7310  168.5563 N.ar    1  UNL1       -0.2461
     29 N         140.9068  141.6336  170.1785 N.ar    1  UNL1       -0.1871
     30 C         140.0052  142.7967  169.8881 C.ar    1  UNL1        0.2259
     31 N         139.4775  143.3115  171.1944 N.ar    1  UNL1       -0.1045
     32 N         140.0529  142.4665  172.2922 N.ar    1  UNL1       -0.0222
     33 N         140.9363  141.4296  171.6643 N.ar    1  UNL1       -0.0384
@<TRIPOS>BOND
     1    11    12    1
     2    12    13   ar
     3    13    10    1
     4    10     9    1
     5     9     1    1
     6     1     2    1
     7     2     3    1
     8     3     4    1
     9     4     5   am
    10     5     6    2
    11     5    22    1
    12    22    23    1
    13    23    24   ar
    14    24    25   ar
    15    25    26   ar
    16    26    29    1
    17    29    30   ar
    18    30    31   ar
    19    31    32   ar
    20    32    33   ar
    21    26    27   ar
    22    27    28   ar
    23     4     7    1
    24     7     8    1
    25    13    14   ar
    26    14    15   ar
    27    15    16   ar
    28    16    17   ar
    29    17    18    1
    30    18    19    1
    31    19    20    1
    32    20    21    2
    33    17    12   ar
    34     8     1    1
    35    20    16    1
    36    28    23   ar
    37    33    29   ar
@<TRIPOS>MOLECULE
*****
 33 37 0 0 0
SMALL
GASTEIGER

@<TRIPOS>ATOM
      1 N         142.9048  141.5924  161.1477 N.3     1  UNL1       -0.2695
      2 C         143.4361  141.4787  162.5459 C.3     1  UNL1        0.0939
      3 C         143.0992  140.2789  163.3809 C.3     1  UNL1        0.1107
      4 N         142.2312  139.1929  162.8178 N.am    1  UNL1       -0.2764
      5 C         141.8944  137.9932  163.6528 C.2     1  UNL1        0.2318
      6 O         141.0264  136.9072  163.0897 O.2     1  UNL1       -0.2744
      7 C         141.6999  139.3067  161.4196 C.3     1  UNL1        0.1107
      8 C         142.0367  140.5064  160.5846 C.3     1  UNL1        0.0939
      9 C         143.2415  142.7921  160.3127 C.3     1  UNL1        0.0769
     10 C         142.4092  144.0357  160.4165 C.3     1  UNL1        0.0433
     11 C         139.5224  143.2380  160.2426 C.3     1  UNL1        0.0305
     12 C         140.0601  143.8369  161.5085 C.ar    1  UNL1       -0.0260
     13 C         141.5035  144.2358  161.5954 C.ar    1  UNL1       -0.0249
     14 C         142.0412  144.8347  162.8611 C.ar    1  UNL1       -0.0043
     15 C         141.1355  145.0349  164.0399 C.ar    1  UNL1        0.0059
     16 C         139.6922  144.6360  163.9531 C.ar    1  UNL1        0.0748
     17 C         139.1544  144.0371  162.6873 C.ar    1  UNL1        0.0233
     18 C         137.6984  143.7428  162.8957 C.3     1  UNL1        0.2352
     19 O         137.3363  144.1600  164.2903 O.3     1  UNL1       -0.4404
     20 C         138.5685  144.7120  164.9438 C.2     1  UNL1        0.3413
     21 O         138.6607  145.2462  166.3424 O.2     1  UNL1       -0.2449
     22 C         142.4257  137.8795  165.0509 C.3     1  UNL1        0.1309
     23 C         141.9856  138.8549  166.1020 C.ar    1  UNL1        0.0683
     24 C         140.6024  139.4332  166.0564 C.ar    1  UNL1        0.0168
     25 C         140.1622  140.4087  167.1075 C.ar    1  UNL1        0.0221
     26 C         141.1053  140.8058  168.2043 C.ar    1  UNL1        0.1053
     27 C         142.4886  140.2274  168.2499 C.ar    1  UNL1        0.1176
     28 N         142.9288  139.2520  167.1988 N.ar    1  UNL1       -0.2461
     29 N         140.6652  141.7812  169.2554 N.ar    1  UNL1       -0.1871
     30 C         140.4019  141.4641  170.6976 C.ar    1  UNL1        0.2259
     31 N         139.9851  142.7319  171.3823 N.ar    1  UNL1       -0.1045
     32 N         139.9908  143.8327  170.3633 N.ar    1  UNL1       -0.0222
     33 N         140.4111  143.2450  169.0487 N.ar    1  UNL1       -0.0384
@<TRIPOS>BOND
     1    11    12    1
     2    12    13   ar
     3    13    10    1
     4    10     9    1
     5     9     1    1
     6     1     2    1
     7     2     3    1
     8     3     4    1
     9     4     5   am
    10     5     6    2
    11     5    22    1
    12    22    23    1
    13    23    24   ar
    14    24    25   ar
    15    25    26   ar
    16    26    29    1
    17    29    30   ar
    18    30    31   ar
    19    31    32   ar
    20    32    33   ar
    21    26    27   ar
    22    27    28   ar
    23     4     7    1
    24     7     8    1
    25    13    14   ar
    26    14    15   ar
    27    15    16   ar
    28    16    17   ar
    29    17    18    1
    30    18    19    1
    31    19    20    1
    32    20    21    2
    33    17    12   ar
    34     8     1    1
    35    20    16    1
    36    28    23   ar
    37    33    29   ar
@<TRIPOS>MOLECULE
*****
 33 37 0 0 0
SMALL
GASTEIGER

@<TRIPOS>ATOM
      1 N         142.2851  142.0987  159.7670 N.3     1  UNL1       -0.2695
      2 C         141.9410  140.8838  160.5766 C.3     1  UNL1        0.0939
      3 C         142.8315  140.4585  161.7064 C.3     1  UNL1        0.1107
      4 N         144.0660  141.2481  162.0265 N.am    1  UNL1       -0.2764
      5 C         144.9564  140.8228  163.1562 C.2     1  UNL1        0.2318
      6 O         146.1909  141.6124  163.4763 O.2     1  UNL1       -0.2744
      7 C         144.4100  142.4631  161.2168 C.3     1  UNL1        0.1107
      8 C         143.5196  142.8883  160.0871 C.3     1  UNL1        0.0939
      9 C         141.3947  142.5240  158.6373 C.3     1  UNL1        0.0769
     10 C         140.2207  143.4189  158.9037 C.3     1  UNL1        0.0433
     11 C         138.3173  141.5203  160.2350 C.3     1  UNL1        0.0305
     12 C         138.8222  142.7209  160.9791 C.ar    1  UNL1       -0.0260
     13 C         139.7739  143.6703  160.3134 C.ar    1  UNL1       -0.0249
     14 C         140.2787  144.8709  161.0574 C.ar    1  UNL1       -0.0043
     15 C         139.8320  145.1223  162.4670 C.ar    1  UNL1        0.0059
     16 C         138.8803  144.1730  163.1327 C.ar    1  UNL1        0.0748
     17 C         138.3754  142.9723  162.3888 C.ar    1  UNL1        0.0233
     18 C         137.4515  142.2180  163.2984 C.3     1  UNL1        0.2352
     19 O         137.3854  142.9526  164.6046 O.3     1  UNL1       -0.4404
     20 C         138.2684  144.1608  164.5022 C.2     1  UNL1        0.3413
     21 O         138.4990  145.1781  165.5801 O.2     1  UNL1       -0.2449
     22 C         144.6123  139.6078  163.9658 C.3     1  UNL1        0.1309
     23 C         143.7566  139.7405  165.1906 C.ar    1  UNL1        0.0683
     24 C         143.7459  138.6493  166.2197 C.ar    1  UNL1        0.0168
     25 C         142.8902  138.7819  167.4447 C.ar    1  UNL1        0.0221
     26 C         142.0453  140.0058  167.6404 C.ar    1  UNL1        0.1053
     27 C         142.0561  141.0970  166.6112 C.ar    1  UNL1        0.1176
     28 N         142.9117  140.9644  165.3863 N.ar    1  UNL1       -0.2461
     29 N         141.1897  140.1385  168.8652 N.ar    1  UNL1       -0.1871
     30 C         141.6386  140.6455  170.2037 C.ar    1  UNL1        0.2259
     31 N         140.4612  140.6078  171.1322 N.ar    1  UNL1       -0.1045
     32 N         139.2845  140.0775  170.3677 N.ar    1  UNL1       -0.0222
     33 N         139.7349  139.7875  168.9666 N.ar    1  UNL1       -0.0384
@<TRIPOS>BOND
     1    11    12    1
     2    12    13   ar
     3    13    10    1
     4    10     9    1
     5     9     1    1
     6     1     2    1
     7     2     3    1
     8     3     4    1
     9     4     5   am
    10     5     6    2
    11     5    22    1
    12    22    23    1
    13    23    24   ar
    14    24    25   ar
    15    25    26   ar
    16    26    29    1
    17    29    30   ar
    18    30    31   ar
    19    31    32   ar
    20    32    33   ar
    21    26    27   ar
    22    27    28   ar
    23     4     7    1
    24     7     8    1
    25    13    14   ar
    26    14    15   ar
    27    15    16   ar
    28    16    17   ar
    29    17    18    1
    30    18    19    1
    31    19    20    1
    32    20    21    2
    33    17    12   ar
    34     8     1    1
    35    20    16    1
    36    28    23   ar
    37    33    29   ar
@<TRIPOS>MOLECULE
*****
 33 37 0 0 0
SMALL
GASTEIGER

@<TRIPOS>ATOM
      1 N         143.6202  140.5385  160.8320 N.3     1  UNL1       -0.2695
      2 C         144.1928  140.6469  162.2142 C.3     1  UNL1        0.0939
      3 C         143.6572  139.7833  163.3176 C.3     1  UNL1        0.1107
      4 N         142.5491  138.8115  163.0389 N.am    1  UNL1       -0.2764
      5 C         142.0136  137.9480  164.1424 C.2     1  UNL1        0.2318
      6 O         140.9055  136.9762  163.8636 O.2     1  UNL1       -0.2744
      7 C         141.9766  138.7032  161.6566 C.3     1  UNL1        0.1107
      8 C         142.5121  139.5667  160.5533 C.3     1  UNL1        0.0939
      9 C         144.1557  141.4020  159.7285 C.3     1  UNL1        0.0769
     10 C         143.6882  142.8207  159.5923 C.3     1  UNL1        0.0433
     11 C         143.9748  144.0681  162.3057 C.3     1  UNL1        0.0305
     12 C         142.6146  143.9079  161.6937 C.ar    1  UNL1       -0.0260
     13 C         142.4713  143.2842  160.3370 C.ar    1  UNL1       -0.0249
     14 C         141.1113  143.1241  159.7251 C.ar    1  UNL1       -0.0043
     15 C         139.8945  143.5875  160.4697 C.ar    1  UNL1        0.0059
     16 C         140.0377  144.2112  161.8264 C.ar    1  UNL1        0.0748
     17 C         141.3978  144.3714  162.4384 C.ar    1  UNL1        0.0233
     18 C         141.2286  145.0178  163.7813 C.3     1  UNL1        0.2352
     19 O         139.7640  145.2571  163.9993 O.3     1  UNL1       -0.4404
     20 C         139.0280  144.7586  162.7911 C.2     1  UNL1        0.3413
     21 O         137.5429  144.8002  162.5840 O.2     1  UNL1       -0.2449
     22 C         142.5862  138.0564  165.5245 C.3     1  UNL1        0.1309
     23 C         142.0345  139.0652  166.4878 C.ar    1  UNL1        0.0683
     24 C         140.6652  139.6381  166.2714 C.ar    1  UNL1        0.0168
     25 C         140.1134  140.6469  167.2347 C.ar    1  UNL1        0.0221
     26 C         140.9309  141.0828  168.4144 C.ar    1  UNL1        0.1053
     27 C         142.3002  140.5099  168.6307 C.ar    1  UNL1        0.1176
     28 N         142.8520  139.5011  167.6675 N.ar    1  UNL1       -0.2461
     29 N         140.3792  142.0916  169.3776 N.ar    1  UNL1       -0.1871
     30 C         140.6442  143.5679  169.3564 C.ar    1  UNL1        0.2259
     31 N         139.8944  144.1898  170.4969 N.ar    1  UNL1       -0.1045
     32 N         139.1659  143.0980  171.2232 N.ar    1  UNL1       -0.0222
     33 N         139.4656  141.8012  170.5313 N.ar    1  UNL1       -0.0384
@<TRIPOS>BOND
     1    11    12    1
     2    12    13   ar
     3    13    10    1
     4    10     9    1
     5     9     1    1
     6     1     2    1
     7     2     3    1
     8     3     4    1
     9     4     5   am
    10     5     6    2
    11     5    22    1
    12    22    23    1
    13    23    24   ar
    14    24    25   ar
    15    25    26   ar
    16    26    29    1
    17    29    30   ar
    18    30    31   ar
    19    31    32   ar
    20    32    33   ar
    21    26    27   ar
    22    27    28   ar
    23     4     7    1
    24     7     8    1
    25    13    14   ar
    26    14    15   ar
    27    15    16   ar
    28    16    17   ar
    29    17    18    1
    30    18    19    1
    31    19    20    1
    32    20    21    2
    33    17    12   ar
    34     8     1    1
    35    20    16    1
    36    28    23   ar
    37    33    29   ar
@<TRIPOS>MOLECULE
*****
 33 37 0 0 0
SMALL
GASTEIGER

@<TRIPOS>ATOM
      1 N         142.7549  138.2049  158.9888 N.3     1  UNL1       -0.2695
      2 C         143.1016  137.5274  160.2814 C.3     1  UNL1        0.0939
      3 C         143.7266  138.3133  161.3959 C.3     1  UNL1        0.1107
      4 N         144.0049  139.7764  161.2178 N.am    1  UNL1       -0.2764
      5 C         144.6298  140.5621  162.3322 C.2     1  UNL1        0.2318
      6 O         144.9081  142.0253  162.1541 O.2     1  UNL1       -0.2744
      7 C         143.6581  140.4538  159.9251 C.3     1  UNL1        0.1107
      8 C         143.0332  139.6680  158.8107 C.3     1  UNL1        0.0939
      9 C         142.1299  137.4192  157.8743 C.3     1  UNL1        0.0769
     10 C         142.9984  136.7141  156.8750 C.3     1  UNL1        0.0433
     11 C         141.0561  135.4709  154.9560 C.3     1  UNL1        0.0305
     12 C         141.9565  134.6001  155.7813 C.ar    1  UNL1       -0.0260
     13 C         142.9277  135.2217  156.7408 C.ar    1  UNL1       -0.0249
     14 C         143.8280  134.3510  157.5661 C.ar    1  UNL1       -0.0043
     15 C         143.7574  132.8587  157.4319 C.ar    1  UNL1        0.0059
     16 C         142.7863  132.2371  156.4725 C.ar    1  UNL1        0.0748
     17 C         141.8858  133.1078  155.6472 C.ar    1  UNL1        0.0233
     18 C         141.0355  132.2162  154.7916 C.3     1  UNL1        0.2352
     19 O         141.4105  130.7944  155.0882 O.3     1  UNL1       -0.4404
     20 C         142.4925  130.8073  156.1270 C.2     1  UNL1        0.3413
     21 O         143.1629  129.6020  156.7167 O.2     1  UNL1       -0.2449
     22 C         144.9765  139.8847  163.6249 C.3     1  UNL1        0.1309
     23 C         143.9908  139.8770  164.7554 C.ar    1  UNL1        0.0683
     24 C         143.9875  138.7452  165.7399 C.ar    1  UNL1        0.0168
     25 C         143.0017  138.7375  166.8706 C.ar    1  UNL1        0.0221
     26 C         142.0193  139.8615  167.0167 C.ar    1  UNL1        0.1053
     27 C         142.0225  140.9932  166.0322 C.ar    1  UNL1        0.1176
     28 N         143.0083  141.0010  164.9016 N.ar    1  UNL1       -0.2461
     29 N         141.0335  139.8538  168.1473 N.ar    1  UNL1       -0.1871
     30 C         139.5476  140.0164  168.0226 C.ar    1  UNL1        0.2259
     31 N         138.9564  139.9453  169.3993 N.ar    1  UNL1       -0.1045
     32 N         140.0770  139.7387  170.3749 N.ar    1  UNL1       -0.0222
     33 N         141.3607  139.6821  169.6010 N.ar    1  UNL1       -0.0384
@<TRIPOS>BOND
     1    11    12    1
     2    12    13   ar
     3    13    10    1
     4    10     9    1
     5     9     1    1
     6     1     2    1
     7     2     3    1
     8     3     4    1
     9     4     5   am
    10     5     6    2
    11     5    22    1
    12    22    23    1
    13    23    24   ar
    14    24    25   ar
    15    25    26   ar
    16    26    29    1
    17    29    30   ar
    18    30    31   ar
    19    31    32   ar
    20    32    33   ar
    21    26    27   ar
    22    27    28   ar
    23     4     7    1
    24     7     8    1
    25    13    14   ar
    26    14    15   ar
    27    15    16   ar
    28    16    17   ar
    29    17    18    1
    30    18    19    1
    31    19    20    1
    32    20    21    2
    33    17    12   ar
    34     8     1    1
    35    20    16    1
    36    28    23   ar
    37    33    29   ar
@<TRIPOS>MOLECULE
*****
 33 37 0 0 0
SMALL
GASTEIGER

@<TRIPOS>ATOM
      1 N         144.3357  142.5434  163.4764 N.3     1  UNL1       -0.2695
      2 C         144.2124  142.8551  162.0143 C.3     1  UNL1        0.0939
      3 C         143.0571  143.6722  161.5165 C.3     1  UNL1        0.1107
      4 N         142.0251  144.1775  162.4806 N.am    1  UNL1       -0.2764
      5 C         140.8699  144.9944  161.9827 C.2     1  UNL1        0.2318
      6 O         139.8378  145.4997  162.9468 O.2     1  UNL1       -0.2744
      7 C         142.1484  143.8657  163.9427 C.3     1  UNL1        0.1107
      8 C         143.3036  143.0487  164.4405 C.3     1  UNL1        0.0939
      9 C         145.4909  141.7264  163.9743 C.3     1  UNL1        0.0769
     10 C         145.3715  140.2337  164.0613 C.3     1  UNL1        0.0433
     11 C         144.0447  139.1553  161.5962 C.3     1  UNL1        0.0305
     12 C         143.3547  139.0546  162.9244 C.ar    1  UNL1       -0.0260
     13 C         144.0182  139.5938  164.1570 C.ar    1  UNL1       -0.0249
     14 C         143.3284  139.4931  165.4851 C.ar    1  UNL1       -0.0043
     15 C         141.9751  138.8533  165.5807 C.ar    1  UNL1        0.0059
     16 C         141.3116  138.3140  164.3482 C.ar    1  UNL1        0.0748
     17 C         142.0015  138.4147  163.0201 C.ar    1  UNL1        0.0233
     18 C         141.1073  137.7984  161.9854 C.3     1  UNL1        0.2352
     19 O         139.8648  137.3168  162.6741 O.3     1  UNL1       -0.4404
     20 C         139.9911  137.6355  164.1344 C.2     1  UNL1        0.3413
     21 O         138.9752  137.3294  165.1947 O.2     1  UNL1       -0.2449
     22 C         140.7467  145.3061  160.5206 C.3     1  UNL1        0.1309
     23 C         140.0007  144.3717  159.6149 C.ar    1  UNL1        0.0683
     24 C         140.1584  144.4838  158.1274 C.ar    1  UNL1        0.0168
     25 C         139.4124  143.5493  157.2216 C.ar    1  UNL1        0.0221
     26 C         138.5087  142.5029  157.8033 C.ar    1  UNL1        0.1053
     27 C         138.3510  142.3910  159.2908 C.ar    1  UNL1        0.1176
     28 N         139.0970  143.3254  160.1966 N.ar    1  UNL1       -0.2461
     29 N         137.7627  141.5685  156.8976 N.ar    1  UNL1       -0.1871
     30 C         136.5994  141.9302  156.0224 C.ar    1  UNL1        0.2259
     31 N         136.1668  140.6935  155.2920 N.ar    1  UNL1       -0.1045
     32 N         137.0628  139.5675  155.7157 N.ar    1  UNL1       -0.0222
     33 N         138.0490  140.1084  156.7081 N.ar    1  UNL1       -0.0384
@<TRIPOS>BOND
     1    11    12    1
     2    12    13   ar
     3    13    10    1
     4    10     9    1
     5     9     1    1
     6     1     2    1
     7     2     3    1
     8     3     4    1
     9     4     5   am
    10     5     6    2
    11     5    22    1
    12    22    23    1
    13    23    24   ar
    14    24    25   ar
    15    25    26   ar
    16    26    29    1
    17    29    30   ar
    18    30    31   ar
    19    31    32   ar
    20    32    33   ar
    21    26    27   ar
    22    27    28   ar
    23     4     7    1
    24     7     8    1
    25    13    14   ar
    26    14    15   ar
    27    15    16   ar
    28    16    17   ar
    29    17    18    1
    30    18    19    1
    31    19    20    1
    32    20    21    2
    33    17    12   ar
    34     8     1    1
    35    20    16    1
    36    28    23   ar
    37    33    29   ar
@<TRIPOS>MOLECULE
*****
 33 37 0 0 0
SMALL
GASTEIGER

@<TRIPOS>ATOM
      1 N         142.6434  139.5196  160.0073 N.3     1  UNL1       -0.2695
      2 C         143.3001  139.2415  161.3270 C.3     1  UNL1        0.0939
      3 C         142.4904  138.7018  162.4686 C.3     1  UNL1        0.1107
      4 N         141.0241  138.4403  162.2906 N.am    1  UNL1       -0.2764
      5 C         140.2146  137.9006  163.4322 C.2     1  UNL1        0.2318
      6 O         138.7483  137.6391  163.2542 O.2     1  UNL1       -0.2744
      7 C         140.3675  138.7185  160.9709 C.3     1  UNL1        0.1107
      8 C         141.1771  139.2581  159.8293 C.3     1  UNL1        0.0939
      9 C         143.4529  140.0593  158.8657 C.3     1  UNL1        0.0769
     10 C         143.7014  141.5344  158.7537 C.3     1  UNL1        0.0433
     11 C         141.1775  143.0510  159.3281 C.3     1  UNL1        0.0305
     12 C         142.3482  143.1633  160.2591 C.ar    1  UNL1       -0.0260
     13 C         143.6102  142.4049  159.9719 C.ar    1  UNL1       -0.0249
     14 C         144.7810  142.5171  160.9029 C.ar    1  UNL1       -0.0043
     15 C         144.6898  143.3876  162.1210 C.ar    1  UNL1        0.0059
     16 C         143.4279  144.1459  162.4082 C.ar    1  UNL1        0.0748
     17 C         142.2571  144.0338  161.4773 C.ar    1  UNL1        0.0233
     18 C         141.1524  144.8935  162.0161 C.3     1  UNL1        0.2352
     19 O         141.6404  145.5370  163.2801 O.3     1  UNL1       -0.4404
     20 C         143.0468  145.0750  163.5225 C.2     1  UNL1        0.3413
     21 O         143.9188  145.4723  164.6765 O.2     1  UNL1       -0.2449
     22 C         140.8712  137.6224  164.7518 C.3     1  UNL1        0.1309
     23 C         141.0390  138.7263  165.7535 C.ar    1  UNL1        0.0683
     24 C         139.8460  139.5135  166.2087 C.ar    1  UNL1        0.0168
     25 C         140.0137  140.6174  167.2105 C.ar    1  UNL1        0.0221
     26 C         141.3743  140.9341  167.7568 C.ar    1  UNL1        0.1053
     27 C         142.5672  140.1469  167.3015 C.ar    1  UNL1        0.1176
     28 N         142.3995  139.0430  166.2999 N.ar    1  UNL1       -0.2461
     29 N         141.5420  142.0380  168.7585 N.ar    1  UNL1       -0.1871
     30 C         140.4815  143.0085  169.1868 C.ar    1  UNL1        0.2259
     31 N         141.0838  143.9354  170.2007 N.ar    1  UNL1       -0.1045
     32 N         142.5166  143.5378  170.3991 N.ar    1  UNL1       -0.0222
     33 N         142.7996  142.3651  169.5076 N.ar    1  UNL1       -0.0384
@<TRIPOS>BOND
     1    11    12    1
     2    12    13   ar
     3    13    10    1
     4    10     9    1
     5     9     1    1
     6     1     2    1
     7     2     3    1
     8     3     4    1
     9     4     5   am
    10     5     6    2
    11     5    22    1
    12    22    23    1
    13    23    24   ar
    14    24    25   ar
    15    25    26   ar
    16    26    29    1
    17    29    30   ar
    18    30    31   ar
    19    31    32   ar
    20    32    33   ar
    21    26    27   ar
    22    27    28   ar
    23     4     7    1
    24     7     8    1
    25    13    14   ar
    26    14    15   ar
    27    15    16   ar
    28    16    17   ar
    29    17    18    1
    30    18    19    1
    31    19    20    1
    32    20    21    2
    33    17    12   ar
    34     8     1    1
    35    20    16    1
    36    28    23   ar
    37    33    29   ar
@<TRIPOS>MOLECULE
*****
 33 37 0 0 0
SMALL
GASTEIGER

@<TRIPOS>ATOM
      1 N         143.3211  141.6057  159.2538 N.3     1  UNL1       -0.2695
      2 C         142.9256  140.3575  159.9855 C.3     1  UNL1        0.0939
      3 C         143.4936  140.0729  161.3444 C.3     1  UNL1        0.1107
      4 N         144.4571  141.0365  161.9715 N.am    1  UNL1       -0.2764
      5 C         145.0250  140.7519  163.3303 C.2     1  UNL1        0.2318
      6 O         145.9884  141.7155  163.9573 O.2     1  UNL1       -0.2744
      7 C         144.8525  142.2848  161.2396 C.3     1  UNL1        0.1107
      8 C         144.2846  142.5693  159.8808 C.3     1  UNL1        0.0939
      9 C         142.7532  141.8903  157.8949 C.3     1  UNL1        0.0769
     10 C         141.3808  142.4816  157.7644 C.3     1  UNL1        0.0433
     11 C         141.3241  144.7923  159.6770 C.3     1  UNL1        0.0305
     12 C         140.4138  143.6193  159.8907 C.ar    1  UNL1       -0.0260
     13 C         140.4422  142.4639  158.9344 C.ar    1  UNL1       -0.0249
     14 C         139.5320  141.2910  159.1481 C.ar    1  UNL1       -0.0043
     15 C         138.5934  141.2733  160.3180 C.ar    1  UNL1        0.0059
     16 C         138.5650  142.4286  161.2743 C.ar    1  UNL1        0.0748
     17 C         139.4752  143.6016  161.0606 C.ar    1  UNL1        0.0233
     18 C         139.2256  144.5887  162.1621 C.3     1  UNL1        0.2352
     19 O         138.1610  144.0258  163.0564 O.3     1  UNL1       -0.4404
     20 C         137.7528  142.6908  162.5078 C.2     1  UNL1        0.3413
     21 O         136.7146  141.7782  163.0903 O.2     1  UNL1       -0.2449
     22 C         144.6294  139.5037  164.0621 C.3     1  UNL1        0.1309
     23 C         143.6799  139.5825  165.2205 C.ar    1  UNL1        0.0683
     24 C         143.8356  138.6472  166.3828 C.ar    1  UNL1        0.0168
     25 C         142.8860  138.7260  167.5414 C.ar    1  UNL1        0.0221
     26 C         141.7808  139.7401  167.5376 C.ar    1  UNL1        0.1053
     27 C         141.6252  140.6754  166.3753 C.ar    1  UNL1        0.1176
     28 N         142.5747  140.5966  165.2167 N.ar    1  UNL1       -0.2461
     29 N         140.8312  139.8190  168.6961 N.ar    1  UNL1       -0.1871
     30 C         139.4033  140.2745  168.6363 C.ar    1  UNL1        0.2259
     31 N         138.8325  140.1932  170.0210 N.ar    1  UNL1       -0.1045
     32 N         139.9077  139.6875  170.9367 N.ar    1  UNL1       -0.0222
     33 N         141.1429  139.4562  170.1178 N.ar    1  UNL1       -0.0384
@<TRIPOS>BOND
     1    11    12    1
     2    12    13   ar
     3    13    10    1
     4    10     9    1
     5     9     1    1
     6     1     2    1
     7     2     3    1
     8     3     4    1
     9     4     5   am
    10     5     6    2
    11     5    22    1
    12    22    23    1
    13    23    24   ar
    14    24    25   ar
    15    25    26   ar
    16    26    29    1
    17    29    30   ar
    18    30    31   ar
    19    31    32   ar
    20    32    33   ar
    21    26    27   ar
    22    27    28   ar
    23     4     7    1
    24     7     8    1
    25    13    14   ar
    26    14    15   ar
    27    15    16   ar
    28    16    17   ar
    29    17    18    1
    30    18    19    1
    31    19    20    1
    32    20    21    2
    33    17    12   ar
    34     8     1    1
    35    20    16    1
    36    28    23   ar
    37    33    29   ar
