@<TRIPOS>MOLECULE
*****
 28 32 0 0 0
SMALL
GASTEIGER

@<TRIPOS>ATOM
      1 C         138.9698  139.1341  161.8914 C.3     1  UNL1        0.2783
      2 O         139.3220  138.9871  160.4407 O.3     1  UNL1       -0.3265
      3 C         140.7420  138.5115  160.3543 C.3     1  UNL1        0.1196
      4 C         140.0813  138.7050  159.0217 C.3     1  UNL1        0.0490
      5 C         140.8423  138.4254  157.7597 C.3     1  UNL1        0.0751
      6 N         142.2640  137.9525  157.8303 N.3     1  UNL1       -0.2688
      7 C         142.9248  137.7590  159.1629 C.3     1  UNL1        0.0751
      8 C         142.1638  138.0386  160.4250 C.3     1  UNL1        0.0490
      9 C         141.2674  138.3646  161.7517 C.ar    1  UNL1        0.0415
     10 C         142.4697  137.9799  162.5619 C.ar    1  UNL1        0.1198
     11 N         142.1176  138.1268  164.0125 N.ar    1  UNL1       -0.1639
     12 N         140.6976  138.6024  164.0988 N.ar    1  UNL1       -0.2291
     13 C         140.1722  138.7493  162.7016 C.ar    1  UNL1        0.1162
     14 C         139.9366  138.8819  165.3608 C.ar    1  UNL1        0.0826
     15 C         138.5836  138.2698  165.5719 C.ar    1  UNL1        0.0191
     16 C         137.8225  138.5493  166.8340 C.ar    1  UNL1        0.0015
     17 C         138.4145  139.4410  167.8849 C.ar    1  UNL1        0.0001
     18 C         139.7676  140.0531  167.6738 C.ar    1  UNL1        0.0015
     19 C         140.5286  139.7736  166.4118 C.ar    1  UNL1        0.0191
     20 C         137.5303  140.9227  163.1072 C.3     1  UNL1        0.1772
     21 O         137.6475  139.5864  162.4362 O.3     1  UNL1       -0.3233
     22 C         143.0250  137.6729  156.5682 C.3     1  UNL1        0.0991
     23 C         142.9254  136.3263  155.9150 C.ar    1  UNL1       -0.0061
     24 C         142.4188  136.2110  154.5078 C.ar    1  UNL1       -0.0029
     25 C         142.3192  134.8643  153.8546 C.ar    1  UNL1       -0.0003
     26 C         142.7261  133.6331  154.6086 C.ar    1  UNL1       -0.0000
     27 C         143.2327  133.7484  156.0157 C.ar    1  UNL1       -0.0003
     28 C         143.3323  135.0950  156.6689 C.ar    1  UNL1       -0.0029
@<TRIPOS>BOND
     1    20    21    1
     2    21     1    1
     3     1     2    1
     4     2     3    1
     5     3     4    1
     6     4     5    1
     7     5     6    1
     8     6    22    1
     9    22    23    1
    10    23    24   ar
    11    24    25   ar
    12    25    26   ar
    13    26    27   ar
    14    27    28   ar
    15     6     7    1
    16     7     8    1
    17     3     9    1
    18     9    10   ar
    19    10    11   ar
    20    11    12   ar
    21    12    14    1
    22    14    15   ar
    23    15    16   ar
    24    16    17   ar
    25    17    18   ar
    26    18    19   ar
    27    12    13   ar
    28    13     1    1
    29     8     3    1
    30    13     9   ar
    31    28    23   ar
    32    19    14   ar
@<TRIPOS>MOLECULE
*****
 28 32 0 0 0
SMALL
GASTEIGER

@<TRIPOS>ATOM
      1 C         139.0721  142.9044  160.8686 C.3     1  UNL1        0.2783
      2 O         138.7338  142.2337  162.1670 O.3     1  UNL1       -0.3265
      3 C         139.8999  142.4051  163.0948 C.3     1  UNL1        0.1196
      4 C         138.7546  141.6403  163.6892 C.3     1  UNL1        0.0490
      5 C         138.8458  141.1255  165.0951 C.3     1  UNL1        0.0751
      6 N         140.0823  141.3755  165.9066 N.3     1  UNL1       -0.2688
      7 C         141.2276  142.1403  165.3123 C.3     1  UNL1        0.0751
      8 C         141.1364  142.6551  163.9064 C.3     1  UNL1        0.0490
      9 C         140.9589  143.1817  162.3698 C.ar    1  UNL1        0.0415
     10 C         142.3340  143.7676  162.4952 C.ar    1  UNL1        0.1198
     11 N         142.6723  144.4383  161.1968 N.ar    1  UNL1       -0.1639
     12 N         141.5061  144.2669  160.2690 N.ar    1  UNL1       -0.2291
     13 C         140.4472  143.4903  160.9940 C.ar    1  UNL1        0.1162
     14 C         141.4150  144.7817  158.8631 C.ar    1  UNL1        0.0826
     15 C         142.4291  144.3585  157.8422 C.ar    1  UNL1        0.0191
     16 C         142.3380  144.8733  156.4362 C.ar    1  UNL1        0.0015
     17 C         141.2326  145.8113  156.0512 C.ar    1  UNL1        0.0001
     18 C         140.2184  146.2346  157.0722 C.ar    1  UNL1        0.0015
     19 C         140.3096  145.7198  158.4781 C.ar    1  UNL1        0.0191
     20 C         138.6403  142.3645  158.3642 C.3     1  UNL1        0.1772
     21 O         138.1900  142.9765  159.6575 O.3     1  UNL1       -0.3233
     22 C         140.1735  140.8606  167.3126 C.3     1  UNL1        0.0991
     23 C         141.0309  141.5713  168.3175 C.ar    1  UNL1       -0.0061
     24 C         142.3960  141.0433  168.6457 C.ar    1  UNL1       -0.0029
     25 C         143.2534  141.7541  169.6506 C.ar    1  UNL1       -0.0003
     26 C         142.7457  142.9927  170.3272 C.ar    1  UNL1       -0.0000
     27 C         141.3805  143.5207  169.9990 C.ar    1  UNL1       -0.0003
     28 C         140.5232  142.8100  168.9942 C.ar    1  UNL1       -0.0029
@<TRIPOS>BOND
     1    20    21    1
     2    21     1    1
     3     1     2    1
     4     2     3    1
     5     3     4    1
     6     4     5    1
     7     5     6    1
     8     6    22    1
     9    22    23    1
    10    23    24   ar
    11    24    25   ar
    12    25    26   ar
    13    26    27   ar
    14    27    28   ar
    15     6     7    1
    16     7     8    1
    17     3     9    1
    18     9    10   ar
    19    10    11   ar
    20    11    12   ar
    21    12    14    1
    22    14    15   ar
    23    15    16   ar
    24    16    17   ar
    25    17    18   ar
    26    18    19   ar
    27    12    13   ar
    28    13     1    1
    29     8     3    1
    30    13     9   ar
    31    28    23   ar
    32    19    14   ar
@<TRIPOS>MOLECULE
*****
 28 32 0 0 0
SMALL
GASTEIGER

@<TRIPOS>ATOM
      1 C         141.8644  141.7523  163.4698 C.3     1  UNL1        0.2783
      2 O         142.1761  142.2040  162.0737 O.3     1  UNL1       -0.3265
      3 C         141.3597  143.4300  161.7900 C.3     1  UNL1        0.1196
      4 C         142.2335  143.0012  160.6487 C.3     1  UNL1        0.0490
      5 C         142.2334  143.7837  159.3690 C.3     1  UNL1        0.0751
      6 N         141.3596  144.9950  159.2307 N.3     1  UNL1       -0.2688
      7 C         140.4858  145.4238  160.3720 C.3     1  UNL1        0.0751
      8 C         140.4859  144.6413  161.6517 C.3     1  UNL1        0.0490
      9 C         140.5435  143.7361  163.0108 C.ar    1  UNL1        0.0415
     10 C         139.5345  144.6830  163.5899 C.ar    1  UNL1        0.1198
     11 N         139.2228  144.2314  164.9859 N.ar    1  UNL1       -0.1639
     12 N         140.0391  143.0054  165.2696 N.ar    1  UNL1       -0.2291
     13 C         140.8553  142.6993  164.0489 C.ar    1  UNL1        0.1162
     14 C         140.0392  142.2229  166.5492 C.ar    1  UNL1        0.0826
     15 C         140.4718  142.8767  167.8281 C.ar    1  UNL1        0.0191
     16 C         140.4719  142.0942  169.1078 C.ar    1  UNL1        0.0015
     17 C         140.0394  140.6578  169.1087 C.ar    1  UNL1        0.0001
     18 C         139.6069  140.0040  167.8298 C.ar    1  UNL1        0.0015
     19 C         139.6068  140.7866  166.5501 C.ar    1  UNL1        0.0191
     20 C         143.2668  140.7501  165.4136 C.3     1  UNL1        0.1772
     21 O         142.4575  140.5627  164.1648 O.3     1  UNL1       -0.3233
     22 C         141.3595  145.7776  157.9509 C.3     1  UNL1        0.0991
     23 C         140.2183  145.6394  156.9873 C.ar    1  UNL1       -0.0061
     24 C         139.7117  146.8417  156.2473 C.ar    1  UNL1       -0.0029
     25 C         138.5704  146.7034  155.2837 C.ar    1  UNL1       -0.0003
     26 C         137.9358  145.3628  155.0602 C.ar    1  UNL1       -0.0000
     27 C         138.4424  144.1605  155.8002 C.ar    1  UNL1       -0.0003
     28 C         139.5836  144.2987  156.7638 C.ar    1  UNL1       -0.0029
@<TRIPOS>BOND
     1    20    21    1
     2    21     1    1
     3     1     2    1
     4     2     3    1
     5     3     4    1
     6     4     5    1
     7     5     6    1
     8     6    22    1
     9    22    23    1
    10    23    24   ar
    11    24    25   ar
    12    25    26   ar
    13    26    27   ar
    14    27    28   ar
    15     6     7    1
    16     7     8    1
    17     3     9    1
    18     9    10   ar
    19    10    11   ar
    20    11    12   ar
    21    12    14    1
    22    14    15   ar
    23    15    16   ar
    24    16    17   ar
    25    17    18   ar
    26    18    19   ar
    27    12    13   ar
    28    13     1    1
    29     8     3    1
    30    13     9   ar
    31    28    23   ar
    32    19    14   ar
@<TRIPOS>MOLECULE
*****
 28 32 0 0 0
SMALL
GASTEIGER

@<TRIPOS>ATOM
      1 C         139.7342  139.8277  165.2447 C.3     1  UNL1        0.2783
      2 O         139.2958  139.2126  163.9487 O.3     1  UNL1       -0.3265
      3 C         139.9118  139.9997  162.8302 C.3     1  UNL1        0.1196
      4 C         139.0574  138.8551  162.3723 C.3     1  UNL1        0.0490
      5 C         138.8846  138.5876  160.9065 C.3     1  UNL1        0.0751
      6 N         139.5663  139.4647  159.8986 N.3     1  UNL1       -0.2688
      7 C         140.4208  140.6093  160.3565 C.3     1  UNL1        0.0751
      8 C         140.5936  140.8768  161.8223 C.3     1  UNL1        0.0490
      9 C         140.7310  141.1013  163.4349 C.ar    1  UNL1        0.0415
     10 C         141.6179  142.2685  163.1174 C.ar    1  UNL1        0.1198
     11 N         142.0563  142.8837  164.4133 N.ar    1  UNL1       -0.1639
     12 N         141.4403  142.0966  165.5318 N.ar    1  UNL1       -0.2291
     13 C         140.6212  140.9950  164.9271 C.ar    1  UNL1        0.1162
     14 C         141.6130  142.3641  166.9976 C.ar    1  UNL1        0.0826
     15 C         142.9404  142.1216  167.6528 C.ar    1  UNL1        0.0191
     16 C         143.1132  142.3891  169.1187 C.ar    1  UNL1        0.0015
     17 C         141.9586  142.8990  169.9292 C.ar    1  UNL1        0.0001
     18 C         140.6312  143.1414  169.2739 C.ar    1  UNL1        0.0015
     19 C         140.4585  142.8740  167.8081 C.ar    1  UNL1        0.0191
     20 C         137.9969  138.7627  166.8562 C.3     1  UNL1        0.1772
     21 O         139.3527  139.3580  166.6172 O.3     1  UNL1       -0.3233
     22 C         139.3935  139.1972  158.4328 C.3     1  UNL1        0.0991
     23 C         140.3160  138.2457  157.7302 C.ar    1  UNL1       -0.0061
     24 C         139.8244  137.4554  156.5539 C.ar    1  UNL1       -0.0029
     25 C         140.7470  136.5038  155.8513 C.ar    1  UNL1       -0.0003
     26 C         142.1610  136.3427  156.3251 C.ar    1  UNL1       -0.0000
     27 C         142.6526  137.1330  157.5014 C.ar    1  UNL1       -0.0003
     28 C         141.7301  138.0845  158.2039 C.ar    1  UNL1       -0.0029
@<TRIPOS>BOND
     1    20    21    1
     2    21     1    1
     3     1     2    1
     4     2     3    1
     5     3     4    1
     6     4     5    1
     7     5     6    1
     8     6    22    1
     9    22    23    1
    10    23    24   ar
    11    24    25   ar
    12    25    26   ar
    13    26    27   ar
    14    27    28   ar
    15     6     7    1
    16     7     8    1
    17     3     9    1
    18     9    10   ar
    19    10    11   ar
    20    11    12   ar
    21    12    14    1
    22    14    15   ar
    23    15    16   ar
    24    16    17   ar
    25    17    18   ar
    26    18    19   ar
    27    12    13   ar
    28    13     1    1
    29     8     3    1
    30    13     9   ar
    31    28    23   ar
    32    19    14   ar
@<TRIPOS>MOLECULE
*****
 28 32 0 0 0
SMALL
GASTEIGER

@<TRIPOS>ATOM
      1 C         139.4854  138.2883  164.7202 C.3     1  UNL1        0.2783
      2 O         139.2810  138.0294  163.2568 O.3     1  UNL1       -0.3265
      3 C         140.2480  138.8865  162.4949 C.3     1  UNL1        0.1196
      4 C         139.3713  138.0348  161.6254 C.3     1  UNL1        0.0490
      5 C         139.5115  138.0930  160.1332 C.3     1  UNL1        0.0751
      6 N         140.5285  139.0029  159.5104 N.3     1  UNL1       -0.2688
      7 C         141.4052  139.8546  160.3799 C.3     1  UNL1        0.0751
      8 C         141.2649  139.7964  161.8721 C.3     1  UNL1        0.0490
      9 C         141.0500  139.6751  163.4874 C.ar    1  UNL1        0.0415
     10 C         142.1433  140.6921  163.6298 C.ar    1  UNL1        0.1198
     11 N         142.3478  140.9510  165.0931 N.ar    1  UNL1       -0.1639
     12 N         141.3809  140.0940  165.8550 N.ar    1  UNL1       -0.2291
     13 C         140.5788  139.3054  164.8626 C.ar    1  UNL1        0.1162
     14 C         141.2406  140.0358  167.3472 C.ar    1  UNL1        0.0826
     15 C         142.3659  139.5069  168.1862 C.ar    1  UNL1        0.0191
     16 C         142.2257  139.4487  169.6786 C.ar    1  UNL1        0.0015
     17 C         140.9601  139.9193  170.3318 C.ar    1  UNL1        0.0001
     18 C         139.8347  140.4481  169.4928 C.ar    1  UNL1        0.0015
     19 C         139.9750  140.5064  168.0005 C.ar    1  UNL1        0.0191
     20 C         137.7239  138.4372  166.6240 C.3     1  UNL1        0.1772
     21 O         138.7293  137.6435  165.8437 O.3     1  UNL1       -0.3233
     22 C         140.6688  139.0611  158.0180 C.3     1  UNL1        0.0991
     23 C         141.1551  137.8598  157.2630 C.ar    1  UNL1       -0.0061
     24 C         142.4895  137.2579  157.5903 C.ar    1  UNL1       -0.0029
     25 C         142.9759  136.0564  156.8352 C.ar    1  UNL1       -0.0003
     26 C         142.1278  135.4570  155.7529 C.ar    1  UNL1       -0.0000
     27 C         140.7935  136.0589  155.4256 C.ar    1  UNL1       -0.0003
     28 C         140.3071  137.2602  156.1806 C.ar    1  UNL1       -0.0029
@<TRIPOS>BOND
     1    20    21    1
     2    21     1    1
     3     1     2    1
     4     2     3    1
     5     3     4    1
     6     4     5    1
     7     5     6    1
     8     6    22    1
     9    22    23    1
    10    23    24   ar
    11    24    25   ar
    12    25    26   ar
    13    26    27   ar
    14    27    28   ar
    15     6     7    1
    16     7     8    1
    17     3     9    1
    18     9    10   ar
    19    10    11   ar
    20    11    12   ar
    21    12    14    1
    22    14    15   ar
    23    15    16   ar
    24    16    17   ar
    25    17    18   ar
    26    18    19   ar
    27    12    13   ar
    28    13     1    1
    29     8     3    1
    30    13     9   ar
    31    28    23   ar
    32    19    14   ar
@<TRIPOS>MOLECULE
*****
 28 32 0 0 0
SMALL
GASTEIGER

@<TRIPOS>ATOM
      1 C         140.1980  138.5548  161.2947 C.3     1  UNL1        0.2783
      2 O         140.0682  138.8047  162.7681 O.3     1  UNL1       -0.3265
      3 C         141.4478  138.8383  163.3559 C.3     1  UNL1        0.1196
      4 C         140.3524  139.0547  164.3575 C.3     1  UNL1        0.0490
      5 C         140.6902  139.2781  165.8018 C.3     1  UNL1        0.0751
      6 N         142.1234  139.2851  166.2444 N.3     1  UNL1       -0.2688
      7 C         143.2188  139.0687  165.2428 C.3     1  UNL1        0.0751
      8 C         142.8810  138.8453  163.7986 C.3     1  UNL1        0.0490
      9 C         142.4303  138.6091  162.2458 C.ar    1  UNL1        0.0415
     10 C         143.8902  138.4882  161.9230 C.ar    1  UNL1        0.1198
     11 N         144.0201  138.2384  160.4498 N.ar    1  UNL1       -0.1639
     12 N         142.6404  138.2048  159.8619 N.ar    1  UNL1       -0.2291
     13 C         141.6579  138.4340  160.9719 C.ar    1  UNL1        0.1162
     14 C         142.3026  137.9814  158.4177 C.ar    1  UNL1        0.0826
     15 C         142.8201  136.7668  157.7057 C.ar    1  UNL1        0.0191
     16 C         142.4823  136.5433  156.2613 C.ar    1  UNL1        0.0015
     17 C         141.6270  137.5344  155.5291 C.ar    1  UNL1        0.0001
     18 C         141.1095  138.7491  156.2412 C.ar    1  UNL1        0.0015
     19 C         141.4473  138.9725  157.6854 C.ar    1  UNL1        0.0191
     20 C         138.0669  139.5570  160.1976 C.3     1  UNL1        0.1772
     21 O         139.0667  138.4451  160.3159 O.3     1  UNL1       -0.3233
     22 C         142.4612  139.5086  167.6888 C.3     1  UNL1        0.0991
     23 C         141.6474  140.4640  168.5102 C.ar    1  UNL1       -0.0061
     24 C         141.8743  141.9416  168.3860 C.ar    1  UNL1       -0.0029
     25 C         141.0604  142.8970  169.2075 C.ar    1  UNL1       -0.0003
     26 C         140.0197  142.3749  170.1531 C.ar    1  UNL1       -0.0000
     27 C         139.7928  140.8974  170.2773 C.ar    1  UNL1       -0.0003
     28 C         140.6066  139.9420  169.4559 C.ar    1  UNL1       -0.0029
@<TRIPOS>BOND
     1    20    21    1
     2    21     1    1
     3     1     2    1
     4     2     3    1
     5     3     4    1
     6     4     5    1
     7     5     6    1
     8     6    22    1
     9    22    23    1
    10    23    24   ar
    11    24    25   ar
    12    25    26   ar
    13    26    27   ar
    14    27    28   ar
    15     6     7    1
    16     7     8    1
    17     3     9    1
    18     9    10   ar
    19    10    11   ar
    20    11    12   ar
    21    12    14    1
    22    14    15   ar
    23    15    16   ar
    24    16    17   ar
    25    17    18   ar
    26    18    19   ar
    27    12    13   ar
    28    13     1    1
    29     8     3    1
    30    13     9   ar
    31    28    23   ar
    32    19    14   ar
@<TRIPOS>MOLECULE
*****
 28 32 0 0 0
SMALL
GASTEIGER

@<TRIPOS>ATOM
      1 C         139.0604  143.2870  161.1519 C.3     1  UNL1        0.2783
      2 O         139.2123  143.0071  162.6178 O.3     1  UNL1       -0.3265
      3 C         138.8249  141.5783  162.8595 C.3     1  UNL1        0.1196
      4 C         139.2433  142.3148  164.0974 C.3     1  UNL1        0.0490
      5 C         139.2466  141.6125  165.4228 C.3     1  UNL1        0.0751
      6 N         138.8315  140.1737  165.5103 N.3     1  UNL1       -0.2688
      7 C         138.4132  139.4372  164.2724 C.3     1  UNL1        0.0751
      8 C         138.4098  140.1395  162.9470 C.3     1  UNL1        0.0490
      9 C         138.4337  140.9750  161.5430 C.ar    1  UNL1        0.0415
     10 C         137.9525  139.7192  160.8787 C.ar    1  UNL1        0.1198
     11 N         137.8006  139.9989  159.4129 N.ar    1  UNL1       -0.1639
     12 N         138.1880  141.4278  159.1712 N.ar    1  UNL1       -0.2291
     13 C         138.5792  142.0310  160.4877 C.ar    1  UNL1        0.1162
     14 C         138.1847  142.1301  157.8458 C.ar    1  UNL1        0.0826
     15 C         137.0395  141.9354  156.8968 C.ar    1  UNL1        0.0191
     16 C         137.0361  142.6377  155.5713 C.ar    1  UNL1        0.0015
     17 C         138.1780  143.5346  155.1949 C.ar    1  UNL1        0.0001
     18 C         139.3232  143.7293  156.1440 C.ar    1  UNL1        0.0015
     19 C         139.3265  143.0270  157.4694 C.ar    1  UNL1        0.0191
     20 C         140.6778  145.2528  160.6332 C.3     1  UNL1        0.1772
     21 O         139.3406  144.5933  160.4700 O.3     1  UNL1       -0.3233
     22 C         138.8349  139.4715  166.8358 C.3     1  UNL1        0.0991
     23 C         139.8310  139.8598  167.8878 C.ar    1  UNL1       -0.0061
     24 C         141.3001  139.7283  167.6147 C.ar    1  UNL1       -0.0029
     25 C         142.2962  140.1167  168.6668 C.ar    1  UNL1       -0.0003
     26 C         141.8233  140.6366  169.9920 C.ar    1  UNL1       -0.0000
     27 C         140.3543  140.7681  170.2651 C.ar    1  UNL1       -0.0003
     28 C         139.3581  140.3797  169.2131 C.ar    1  UNL1       -0.0029
@<TRIPOS>BOND
     1    20    21    1
     2    21     1    1
     3     1     2    1
     4     2     3    1
     5     3     4    1
     6     4     5    1
     7     5     6    1
     8     6    22    1
     9    22    23    1
    10    23    24   ar
    11    24    25   ar
    12    25    26   ar
    13    26    27   ar
    14    27    28   ar
    15     6     7    1
    16     7     8    1
    17     3     9    1
    18     9    10   ar
    19    10    11   ar
    20    11    12   ar
    21    12    14    1
    22    14    15   ar
    23    15    16   ar
    24    16    17   ar
    25    17    18   ar
    26    18    19   ar
    27    12    13   ar
    28    13     1    1
    29     8     3    1
    30    13     9   ar
    31    28    23   ar
    32    19    14   ar
@<TRIPOS>MOLECULE
*****
 28 32 0 0 0
SMALL
GASTEIGER

@<TRIPOS>ATOM
      1 C         140.4893  139.6131  163.2826 C.3     1  UNL1        0.2783
      2 O         140.1610  139.2424  161.8666 O.3     1  UNL1       -0.3265
      3 C         141.4503  138.9929  161.1418 C.3     1  UNL1        0.1196
      4 C         140.2278  138.8124  160.2917 C.3     1  UNL1        0.0490
      5 C         140.3674  138.4161  158.8518 C.3     1  UNL1        0.0751
      6 N         141.7296  138.2002  158.2620 N.3     1  UNL1       -0.2688
      7 C         142.9522  138.3807  159.1121 C.3     1  UNL1        0.0751
      8 C         142.8125  138.7770  160.5520 C.3     1  UNL1        0.0490
      9 C         142.5756  139.2094  162.1098 C.ar    1  UNL1        0.0415
     10 C         144.0679  139.1889  162.2602 C.ar    1  UNL1        0.1198
     11 N         144.3963  139.5596  163.6760 N.ar    1  UNL1       -0.1639
     12 N         143.1069  139.8091  164.4008 N.ar    1  UNL1       -0.2291
     13 C         141.9817  139.5926  163.4328 C.ar    1  UNL1        0.1162
     14 C         142.9673  140.2054  165.8407 C.ar    1  UNL1        0.0826
     15 C         143.0051  141.6543  166.2268 C.ar    1  UNL1        0.0191
     16 C         142.8655  142.0507  167.6668 C.ar    1  UNL1        0.0015
     17 C         142.6880  140.9981  168.7206 C.ar    1  UNL1        0.0001
     18 C         142.6503  139.5491  168.3345 C.ar    1  UNL1        0.0015
     19 C         142.7899  139.1528  166.8945 C.ar    1  UNL1        0.0191
     20 C         139.3452  139.0376  165.5429 C.3     1  UNL1        0.1772
     21 O         139.4992  139.9457  164.3591 O.3     1  UNL1       -0.3233
     22 C         141.8692  137.8039  156.8220 C.3     1  UNL1        0.0991
     23 C         142.0094  136.3569  156.4526 C.ar    1  UNL1       -0.0061
     24 C         143.0506  135.5095  157.1218 C.ar    1  UNL1       -0.0029
     25 C         143.1907  134.0624  156.7523 C.ar    1  UNL1       -0.0003
     26 C         142.2898  133.4628  155.7137 C.ar    1  UNL1       -0.0000
     27 C         141.2486  134.3102  155.0445 C.ar    1  UNL1       -0.0003
     28 C         141.1084  135.7572  155.4139 C.ar    1  UNL1       -0.0029
@<TRIPOS>BOND
     1    20    21    1
     2    21     1    1
     3     1     2    1
     4     2     3    1
     5     3     4    1
     6     4     5    1
     7     5     6    1
     8     6    22    1
     9    22    23    1
    10    23    24   ar
    11    24    25   ar
    12    25    26   ar
    13    26    27   ar
    14    27    28   ar
    15     6     7    1
    16     7     8    1
    17     3     9    1
    18     9    10   ar
    19    10    11   ar
    20    11    12   ar
    21    12    14    1
    22    14    15   ar
    23    15    16   ar
    24    16    17   ar
    25    17    18   ar
    26    18    19   ar
    27    12    13   ar
    28    13     1    1
    29     8     3    1
    30    13     9   ar
    31    28    23   ar
    32    19    14   ar
@<TRIPOS>MOLECULE
*****
 28 32 0 0 0
SMALL
GASTEIGER

@<TRIPOS>ATOM
      1 C         140.7230  143.5564  164.0944 C.3     1  UNL1        0.2783
      2 O         140.4064  144.2034  162.7785 O.3     1  UNL1       -0.3265
      3 C         141.4427  143.7667  161.7859 C.3     1  UNL1        0.1196
      4 C         140.4095  144.6954  161.2205 C.3     1  UNL1        0.0490
      5 C         140.4769  145.1038  159.7788 C.3     1  UNL1        0.0751
      6 N         141.5775  144.5835  158.9025 N.3     1  UNL1       -0.2688
      7 C         142.6108  143.6548  159.4680 C.3     1  UNL1        0.0751
      8 C         142.5434  143.2464  160.9097 C.3     1  UNL1        0.0490
      9 C         142.3999  142.8497  162.4883 C.ar    1  UNL1        0.0415
     10 C         143.6319  142.0131  162.3089 C.ar    1  UNL1        0.1198
     11 N         143.9485  141.3661  163.6246 N.ar    1  UNL1       -0.1639
     12 N         142.9122  141.8029  164.6172 N.ar    1  UNL1       -0.2291
     13 C         141.9551  142.7198  163.9149 C.ar    1  UNL1        0.1162
     14 C         142.8448  141.3945  166.0589 C.ar    1  UNL1        0.0826
     15 C         143.0365  142.4184  167.1382 C.ar    1  UNL1        0.0191
     16 C         142.9691  142.0100  168.5800 C.ar    1  UNL1        0.0015
     17 C         142.7100  140.5777  168.9424 C.ar    1  UNL1        0.0001
     18 C         142.5182  139.5538  167.8631 C.ar    1  UNL1        0.0015
     19 C         142.5857  139.9622  166.4214 C.ar    1  UNL1        0.0191
     20 C         138.8573  144.7475  165.4546 C.3     1  UNL1        0.1772
     21 O         139.9443  143.7177  165.3662 O.3     1  UNL1       -0.3233
     22 C         141.6449  144.9920  157.4607 C.3     1  UNL1        0.0991
     23 C         140.3819  145.1624  156.6697 C.ar    1  UNL1       -0.0061
     24 C         139.5611  143.9627  156.2997 C.ar    1  UNL1       -0.0029
     25 C         138.2980  144.1331  155.5086 C.ar    1  UNL1       -0.0003
     26 C         137.8559  145.5032  155.0875 C.ar    1  UNL1       -0.0000
     27 C         138.6768  146.7029  155.4575 C.ar    1  UNL1       -0.0003
     28 C         139.9398  146.5325  156.2486 C.ar    1  UNL1       -0.0029
@<TRIPOS>BOND
     1    20    21    1
     2    21     1    1
     3     1     2    1
     4     2     3    1
     5     3     4    1
     6     4     5    1
     7     5     6    1
     8     6    22    1
     9    22    23    1
    10    23    24   ar
    11    24    25   ar
    12    25    26   ar
    13    26    27   ar
    14    27    28   ar
    15     6     7    1
    16     7     8    1
    17     3     9    1
    18     9    10   ar
    19    10    11   ar
    20    11    12   ar
    21    12    14    1
    22    14    15   ar
    23    15    16   ar
    24    16    17   ar
    25    17    18   ar
    26    18    19   ar
    27    12    13   ar
    28    13     1    1
    29     8     3    1
    30    13     9   ar
    31    28    23   ar
    32    19    14   ar
