@<TRIPOS>MOLECULE
*****
 29 31 0 0 0
SMALL
GASTEIGER

@<TRIPOS>ATOM
      1 C         140.5842  139.3527  163.8820 C.ar    1  UNL1        0.0184
      2 C         141.2979  139.3726  162.5629 C.ar    1  UNL1        0.0200
      3 C         140.6730  138.7263  161.3621 C.ar    1  UNL1        0.1109
      4 C         139.3343  138.0600  161.4805 C.ar    1  UNL1        0.0201
      5 C         138.6206  138.0401  162.7997 C.ar    1  UNL1        0.0197
      6 C         139.2455  138.6864  164.0004 C.ar    1  UNL1        0.1058
      7 C         143.0838  141.9381  168.6849 C.3     1  UNL1        0.0310
      8 C         142.4589  141.2917  167.4842 C.ar    1  UNL1       -0.0218
      9 C         141.6937  142.1233  166.4978 C.ar    1  UNL1       -0.0043
     10 C         141.0688  141.4770  165.2971 C.ar    1  UNL1       -0.0003
     11 C         141.2091  139.9990  165.0827 C.ar    1  UNL1        0.0013
     12 C         141.9742  139.1675  166.0691 C.ar    1  UNL1       -0.0003
     13 C         142.5991  139.8138  167.2698 C.ar    1  UNL1       -0.0043
     14 S         138.5317  138.6665  165.3196 S.O2    1  UNL1        0.0104
     15 C         137.8179  138.6465  166.6387 C.3     1  UNL1        0.1816
     16 O         139.0302  137.2738  165.5682 O.2     1  UNL1       -0.1686
     17 O         138.0332  140.0592  165.0709 O.2     1  UNL1       -0.1686
     18 S         141.3868  138.7462  160.0430 S.O2    1  UNL1        0.0330
     19 O         140.0982  138.4357  159.3409 O.2     1  UNL1       -0.1638
     20 O         142.6755  139.0567  160.7450 O.2     1  UNL1       -0.1638
     21 C         142.1006  138.7662  158.7239 C.ar    1  UNL1        0.1394
     22 C         142.7602  139.9583  158.0962 C.ar    1  UNL1        0.0256
     23 C         143.3474  139.5264  156.7853 C.ar    1  UNL1        0.0054
     24 C         143.0508  138.0673  156.6027 C.ar    1  UNL1        0.0242
     25 S         142.2802  137.5976  157.8008 S.2     1  UNL1       -0.0714
     26 C         143.4539  137.2259  155.4282 C.3     1  UNL1        0.0988
     27 N         144.8657  136.7338  155.3075 N.3     1  UNL1       -0.3170
     28 H         145.4920  137.5274  155.1719 H       1  UNL1        0.1192
     29 H         144.9388  136.1027  154.5095 H       1  UNL1        0.1192
@<TRIPOS>BOND
     1     7     8    1
     2     8     9   ar
     3     9    10   ar
     4    10    11   ar
     5    11     1    1
     6     1     2   ar
     7     2     3   ar
     8     3    18    1
     9    18    19    2
    10    18    20    2
    11    18    21    1
    12    21    22   ar
    13    22    23   ar
    14    23    24   ar
    15    24    26    1
    16    26    27    1
    17    24    25   ar
    18     3     4   ar
    19     4     5   ar
    20     5     6   ar
    21     6    14    1
    22    14    15    1
    23    14    16    2
    24    14    17    2
    25    11    12   ar
    26    12    13   ar
    27    13     8   ar
    28     6     1   ar
    29    25    21   ar
    30    27    28    1
    31    27    29    1
@<TRIPOS>MOLECULE
*****
 29 31 0 0 0
SMALL
GASTEIGER

@<TRIPOS>ATOM
      1 C         140.4488  142.8985  161.7485 C.ar    1  UNL1        0.0184
      2 C         140.2985  142.2933  163.1127 C.ar    1  UNL1        0.0200
      3 C         140.6496  143.0943  164.3314 C.ar    1  UNL1        0.1109
      4 C         141.1510  144.5005  164.1859 C.ar    1  UNL1        0.0201
      5 C         141.3013  145.1057  162.8217 C.ar    1  UNL1        0.0197
      6 C         140.9502  144.3047  161.6030 C.ar    1  UNL1        0.1058
      7 C         139.0446  139.6946  156.8738 C.3     1  UNL1        0.0310
      8 C         139.3956  140.4956  158.0925 C.ar    1  UNL1       -0.0218
      9 C         138.3607  141.3658  158.7418 C.ar    1  UNL1       -0.0043
     10 C         138.7118  142.1668  159.9604 C.ar    1  UNL1       -0.0003
     11 C         140.0978  142.0975  160.5298 C.ar    1  UNL1        0.0013
     12 C         141.1327  141.2273  159.8806 C.ar    1  UNL1       -0.0003
     13 C         140.7816  140.4263  158.6619 C.ar    1  UNL1       -0.0043
     14 S         141.1005  144.9100  160.2388 S.O2    1  UNL1        0.0104
     15 C         141.2508  145.5153  158.8746 C.3     1  UNL1        0.1816
     16 O         139.7035  145.4495  160.3242 O.2     1  UNL1       -0.1686
     17 O         142.4975  144.3705  160.1533 O.2     1  UNL1       -0.1686
     18 S         140.4993  142.4890  165.6957 S.O2    1  UNL1        0.0330
     19 O         141.2790  141.2881  165.2488 O.2     1  UNL1       -0.1638
     20 O         139.7195  143.6899  166.1425 O.2     1  UNL1       -0.1638
     21 C         140.3489  141.8838  167.0599 C.ar    1  UNL1        0.1394
     22 C         139.7643  140.5371  167.3674 C.ar    1  UNL1        0.0256
     23 C         139.8109  140.3400  168.8537 C.ar    1  UNL1        0.0054
     24 C         140.4243  141.5649  169.4647 C.ar    1  UNL1        0.0242
     25 S         140.7569  142.5190  168.3560 S.2     1  UNL1       -0.0714
     26 C         140.6633  141.7953  170.9275 C.3     1  UNL1        0.0988
     27 N         140.6876  140.6332  171.8756 N.3     1  UNL1       -0.3170
     28 H         139.7604  140.2101  171.9187 H       1  UNL1        0.1192
     29 H         140.9567  140.9577  172.8044 H       1  UNL1        0.1192
@<TRIPOS>BOND
     1     7     8    1
     2     8     9   ar
     3     9    10   ar
     4    10    11   ar
     5    11     1    1
     6     1     2   ar
     7     2     3   ar
     8     3    18    1
     9    18    19    2
    10    18    20    2
    11    18    21    1
    12    21    22   ar
    13    22    23   ar
    14    23    24   ar
    15    24    26    1
    16    26    27    1
    17    24    25   ar
    18     3     4   ar
    19     4     5   ar
    20     5     6   ar
    21     6    14    1
    22    14    15    1
    23    14    16    2
    24    14    17    2
    25    11    12   ar
    26    12    13   ar
    27    13     8   ar
    28     6     1   ar
    29    25    21   ar
    30    27    28    1
    31    27    29    1
@<TRIPOS>MOLECULE
*****
 29 31 0 0 0
SMALL
GASTEIGER

@<TRIPOS>ATOM
      1 C         142.2220  141.8074  162.7612 C.ar    1  UNL1        0.0184
      2 C         141.7405  140.9547  161.6250 C.ar    1  UNL1        0.0200
      3 C         142.7169  140.1295  160.8404 C.ar    1  UNL1        0.1109
      4 C         144.1749  140.1570  161.1919 C.ar    1  UNL1        0.0201
      5 C         144.6564  141.0098  162.3281 C.ar    1  UNL1        0.0197
      6 C         143.6799  141.8349  163.1127 C.ar    1  UNL1        0.1058
      7 C         138.3163  145.1081  165.8998 C.3     1  UNL1        0.0310
      8 C         139.2927  144.2829  165.1151 C.ar    1  UNL1       -0.0218
      9 C         139.9300  144.8478  163.8804 C.ar    1  UNL1       -0.0043
     10 C         140.9064  144.0226  163.0957 C.ar    1  UNL1       -0.0003
     11 C         141.2456  142.6326  163.5458 C.ar    1  UNL1        0.0013
     12 C         140.6083  142.0677  164.7806 C.ar    1  UNL1       -0.0003
     13 C         139.6319  142.8929  165.5653 C.ar    1  UNL1       -0.0043
     14 S         144.1615  142.6877  164.2489 S.O2    1  UNL1        0.0104
     15 C         144.6431  143.5405  165.3851 C.3     1  UNL1        0.1816
     16 O         144.3512  143.8380  163.3052 O.2     1  UNL1       -0.1686
     17 O         143.9719  141.5374  165.1927 O.2     1  UNL1       -0.1686
     18 S         142.2353  139.2767  159.7041 S.O2    1  UNL1        0.0330
     19 O         140.8160  139.6162  160.0508 O.2     1  UNL1       -0.1638
     20 O         143.6547  138.9372  159.3574 O.2     1  UNL1       -0.1638
     21 C         141.7538  138.4240  158.5679 C.ar    1  UNL1        0.1394
     22 C         140.3750  138.4385  157.9774 C.ar    1  UNL1        0.0256
     23 C         140.3356  137.4305  156.8672 C.ar    1  UNL1        0.0054
     24 C         141.6901  136.7930  156.7717 C.ar    1  UNL1        0.0242
     25 S         142.5666  137.4070  157.8228 S.2     1  UNL1       -0.0714
     26 C         142.0967  135.7284  155.7964 C.3     1  UNL1        0.0988
     27 N         141.1145  134.6708  155.3879 N.3     1  UNL1       -0.3170
     28 H         140.8888  134.0872  156.1933 H       1  UNL1        0.1192
     29 H         141.5229  134.0931  154.6531 H       1  UNL1        0.1192
@<TRIPOS>BOND
     1     7     8    1
     2     8     9   ar
     3     9    10   ar
     4    10    11   ar
     5    11     1    1
     6     1     2   ar
     7     2     3   ar
     8     3    18    1
     9    18    19    2
    10    18    20    2
    11    18    21    1
    12    21    22   ar
    13    22    23   ar
    14    23    24   ar
    15    24    26    1
    16    26    27    1
    17    24    25   ar
    18     3     4   ar
    19     4     5   ar
    20     5     6   ar
    21     6    14    1
    22    14    15    1
    23    14    16    2
    24    14    17    2
    25    11    12   ar
    26    12    13   ar
    27    13     8   ar
    28     6     1   ar
    29    25    21   ar
    30    27    28    1
    31    27    29    1
@<TRIPOS>MOLECULE
*****
 29 31 0 0 0
SMALL
GASTEIGER

@<TRIPOS>ATOM
      1 C         140.6516  142.1053  163.5166 C.ar    1  UNL1        0.0184
      2 C         140.2795  142.5049  162.1195 C.ar    1  UNL1        0.0200
      3 C         140.8958  143.7234  161.4986 C.ar    1  UNL1        0.1109
      4 C         141.8842  144.5423  162.2748 C.ar    1  UNL1        0.0201
      5 C         142.2563  144.1427  163.6719 C.ar    1  UNL1        0.0197
      6 C         141.6400  142.9242  164.2927 C.ar    1  UNL1        0.1058
      7 C         138.1864  137.2314  166.0001 C.3     1  UNL1        0.0310
      8 C         138.8027  138.4499  165.3792 C.ar    1  UNL1       -0.0218
      9 C         138.1003  139.7724  165.4654 C.ar    1  UNL1       -0.0043
     10 C         138.7166  140.9909  164.8446 C.ar    1  UNL1       -0.0003
     11 C         140.0353  140.8868  164.1374 C.ar    1  UNL1        0.0013
     12 C         140.7377  139.5643  164.0512 C.ar    1  UNL1       -0.0003
     13 C         140.1214  138.3458  164.6720 C.ar    1  UNL1       -0.0043
     14 S         142.0122  142.5246  165.6899 S.O2    1  UNL1        0.0104
     15 C         142.3843  142.1250  167.0869 C.3     1  UNL1        0.1816
     16 O         140.8144  143.2567  166.2183 O.2     1  UNL1       -0.1686
     17 O         143.2099  141.7924  165.1615 O.2     1  UNL1       -0.1686
     18 S         140.5236  144.1230  160.1015 S.O2    1  UNL1        0.0330
     19 O         141.8656  144.7707  159.9292 O.2     1  UNL1       -0.1638
     20 O         139.1817  143.4754  160.2738 O.2     1  UNL1       -0.1638
     21 C         140.1514  144.5226  158.7045 C.ar    1  UNL1        0.1394
     22 C         139.5013  143.6417  157.6791 C.ar    1  UNL1        0.0256
     23 C         139.3121  144.4479  156.4284 C.ar    1  UNL1        0.0054
     24 C         139.8453  145.8271  156.6808 C.ar    1  UNL1        0.0242
     25 S         140.3640  145.8732  158.0875 S.2     1  UNL1       -0.0714
     26 C         139.8576  146.9610  155.6989 C.3     1  UNL1        0.0988
     27 N         138.8480  147.0042  154.5904 N.3     1  UNL1       -0.3170
     28 H         139.0095  146.2246  153.9529 H       1  UNL1        0.1192
     29 H         138.9389  147.8837  154.0819 H       1  UNL1        0.1192
@<TRIPOS>BOND
     1     7     8    1
     2     8     9   ar
     3     9    10   ar
     4    10    11   ar
     5    11     1    1
     6     1     2   ar
     7     2     3   ar
     8     3    18    1
     9    18    19    2
    10    18    20    2
    11    18    21    1
    12    21    22   ar
    13    22    23   ar
    14    23    24   ar
    15    24    26    1
    16    26    27    1
    17    24    25   ar
    18     3     4   ar
    19     4     5   ar
    20     5     6   ar
    21     6    14    1
    22    14    15    1
    23    14    16    2
    24    14    17    2
    25    11    12   ar
    26    12    13   ar
    27    13     8   ar
    28     6     1   ar
    29    25    21   ar
    30    27    28    1
    31    27    29    1
@<TRIPOS>MOLECULE
*****
 29 31 0 0 0
SMALL
GASTEIGER

@<TRIPOS>ATOM
      1 C         140.9945  142.4019  162.1114 C.ar    1  UNL1        0.0184
      2 C         140.9163  141.8327  163.4969 C.ar    1  UNL1        0.0200
      3 C         140.4364  142.6870  164.6327 C.ar    1  UNL1        0.1109
      4 C         140.0349  144.1105  164.3829 C.ar    1  UNL1        0.0201
      5 C         140.1131  144.6797  162.9974 C.ar    1  UNL1        0.0197
      6 C         140.5930  143.8254  161.8616 C.ar    1  UNL1        0.1058
      7 C         142.9138  138.9849  157.5682 C.3     1  UNL1        0.0310
      8 C         142.4340  139.8391  158.7040 C.ar    1  UNL1       -0.0218
      9 C         143.4202  140.6053  159.5349 C.ar    1  UNL1       -0.0043
     10 C         142.9403  141.4596  160.6707 C.ar    1  UNL1       -0.0003
     11 C         141.4743  141.5477  160.9756 C.ar    1  UNL1        0.0013
     12 C         140.4882  140.7815  160.1447 C.ar    1  UNL1       -0.0003
     13 C         140.9680  139.9272  159.0089 C.ar    1  UNL1       -0.0043
     14 S         140.6712  144.3947  160.4760 S.O2    1  UNL1        0.0104
     15 C         140.7495  144.9639  159.0904 C.3     1  UNL1        0.1816
     16 O         142.0901  144.8112  160.7273 O.2     1  UNL1       -0.1686
     17 O         139.2523  143.9782  160.2247 O.2     1  UNL1       -0.1686
     18 S         140.3582  142.1177  166.0183 S.O2    1  UNL1        0.0330
     19 O         140.6502  140.7511  165.4734 O.2     1  UNL1       -0.1638
     20 O         140.0662  143.4843  166.5633 O.2     1  UNL1       -0.1638
     21 C         140.2799  141.5485  167.4039 C.ar    1  UNL1        0.1394
     22 C         139.6157  140.2607  167.7918 C.ar    1  UNL1        0.0256
     23 C         139.7774  140.0834  169.2725 C.ar    1  UNL1        0.0054
     24 C         140.5416  141.2617  169.7997 C.ar    1  UNL1        0.0242
     25 S         140.8521  142.1671  168.6448 S.2     1  UNL1       -0.0714
     26 C         140.9274  141.4938  171.2305 C.3     1  UNL1        0.0988
     27 N         142.1345  140.8110  171.8020 N.3     1  UNL1       -0.3170
     28 H         141.9743  139.8040  171.8296 H       1  UNL1        0.1192
     29 H         142.3036  141.1543  172.7475 H       1  UNL1        0.1192
@<TRIPOS>BOND
     1     7     8    1
     2     8     9   ar
     3     9    10   ar
     4    10    11   ar
     5    11     1    1
     6     1     2   ar
     7     2     3   ar
     8     3    18    1
     9    18    19    2
    10    18    20    2
    11    18    21    1
    12    21    22   ar
    13    22    23   ar
    14    23    24   ar
    15    24    26    1
    16    26    27    1
    17    24    25   ar
    18     3     4   ar
    19     4     5   ar
    20     5     6   ar
    21     6    14    1
    22    14    15    1
    23    14    16    2
    24    14    17    2
    25    11    12   ar
    26    12    13   ar
    27    13     8   ar
    28     6     1   ar
    29    25    21   ar
    30    27    28    1
    31    27    29    1
@<TRIPOS>MOLECULE
*****
 29 31 0 0 0
SMALL
GASTEIGER

@<TRIPOS>ATOM
      1 C         141.7509  140.1337  162.2030 C.ar    1  UNL1        0.0184
      2 C         141.3985  140.4450  163.6274 C.ar    1  UNL1        0.0200
      3 C         141.2697  139.3350  164.6280 C.ar    1  UNL1        0.1109
      4 C         141.4932  137.9136  164.2042 C.ar    1  UNL1        0.0201
      5 C         141.8456  137.6023  162.7798 C.ar    1  UNL1        0.0197
      6 C         141.9744  138.7123  161.7793 C.ar    1  UNL1        0.1058
      7 C         142.2664  144.5740  158.2008 C.3     1  UNL1        0.0310
      8 C         142.1375  143.4639  159.2013 C.ar    1  UNL1       -0.0218
      9 C         143.3491  142.9725  159.9365 C.ar    1  UNL1       -0.0043
     10 C         143.2202  141.8624  160.9371 C.ar    1  UNL1       -0.0003
     11 C         141.8798  141.2438  161.2025 C.ar    1  UNL1        0.0013
     12 C         140.6682  141.7352  160.4673 C.ar    1  UNL1       -0.0003
     13 C         140.7971  142.8453  159.4667 C.ar    1  UNL1       -0.0043
     14 S         142.3268  138.4009  160.3548 S.O2    1  UNL1        0.0104
     15 C         142.6793  138.0896  158.9305 C.3     1  UNL1        0.1816
     16 O         143.7847  138.4553  160.7037 O.2     1  UNL1       -0.1686
     17 O         140.8690  138.3466  160.0060 O.2     1  UNL1       -0.1686
     18 S         140.9172  139.6464  166.0524 S.O2    1  UNL1        0.0330
     19 O         142.3735  139.6504  166.4119 O.2     1  UNL1       -0.1638
     20 O         139.4610  139.6423  165.6930 O.2     1  UNL1       -0.1638
     21 C         140.5648  139.9577  167.4768 C.ar    1  UNL1        0.1394
     22 C         139.1879  139.9281  168.0710 C.ar    1  UNL1        0.0256
     23 C         139.2995  140.3055  169.5185 C.ar    1  UNL1        0.0054
     24 C         140.7455  140.5683  169.8188 C.ar    1  UNL1        0.0242
     25 S         141.5274  140.3534  168.5569 S.2     1  UNL1       -0.0714
     26 C         141.3102  140.9747  171.1477 C.3     1  UNL1        0.0988
     27 N         140.6702  142.0853  171.9266 N.3     1  UNL1       -0.3170
     28 H         140.7793  142.9633  171.4191 H       1  UNL1        0.1192
     29 H         141.1184  142.1624  172.8396 H       1  UNL1        0.1192
@<TRIPOS>BOND
     1     7     8    1
     2     8     9   ar
     3     9    10   ar
     4    10    11   ar
     5    11     1    1
     6     1     2   ar
     7     2     3   ar
     8     3    18    1
     9    18    19    2
    10    18    20    2
    11    18    21    1
    12    21    22   ar
    13    22    23   ar
    14    23    24   ar
    15    24    26    1
    16    26    27    1
    17    24    25   ar
    18     3     4   ar
    19     4     5   ar
    20     5     6   ar
    21     6    14    1
    22    14    15    1
    23    14    16    2
    24    14    17    2
    25    11    12   ar
    26    12    13   ar
    27    13     8   ar
    28     6     1   ar
    29    25    21   ar
    30    27    28    1
    31    27    29    1
@<TRIPOS>MOLECULE
*****
 29 31 0 0 0
SMALL
GASTEIGER

@<TRIPOS>ATOM
      1 C         141.4713  141.0190  162.8172 C.ar    1  UNL1        0.0184
      2 C         140.9214  141.8798  161.7188 C.ar    1  UNL1        0.0200
      3 C         141.8484  142.4959  160.7133 C.ar    1  UNL1        0.1109
      4 C         143.3253  142.2512  160.8061 C.ar    1  UNL1        0.0201
      5 C         143.8753  141.3903  161.9045 C.ar    1  UNL1        0.0197
      6 C         142.9483  140.7742  162.9100 C.ar    1  UNL1        0.1058
      7 C         137.7633  138.5546  166.8393 C.3     1  UNL1        0.0310
      8 C         138.6903  139.1707  165.8338 C.ar    1  UNL1       -0.0218
      9 C         139.2543  140.5397  166.0738 C.ar    1  UNL1       -0.0043
     10 C         140.1813  141.1558  165.0682 C.ar    1  UNL1       -0.0003
     11 C         140.5443  140.4029  163.8227 C.ar    1  UNL1        0.0013
     12 C         139.9803  139.0339  163.5828 C.ar    1  UNL1       -0.0003
     13 C         139.0533  138.4178  164.5883 C.ar    1  UNL1       -0.0043
     14 S         143.4983  139.9133  164.0084 S.O2    1  UNL1        0.0104
     15 C         144.0483  139.0525  165.1067 C.3     1  UNL1        0.1816
     16 O         143.3871  138.7095  163.1205 O.2     1  UNL1       -0.1686
     17 O         143.6095  141.1172  164.8963 O.2     1  UNL1       -0.1686
     18 S         141.2983  143.3568  159.6149 S.O2    1  UNL1        0.0330
     19 O         140.0426  142.5366  159.6008 O.2     1  UNL1       -0.1638
     20 O         142.5541  144.1771  159.6290 O.2     1  UNL1       -0.1638
     21 C         140.7484  144.2177  158.5166 C.ar    1  UNL1        0.1394
     22 C         141.0113  145.6825  158.3289 C.ar    1  UNL1        0.0256
     23 C         140.2643  146.1351  157.1094 C.ar    1  UNL1        0.0054
     24 C         139.5398  144.9499  156.5433 C.ar    1  UNL1        0.0242
     25 S         139.8389  143.7649  157.4130 S.2     1  UNL1       -0.0714
     26 C         138.6689  144.9497  155.3220 C.3     1  UNL1        0.0988
     27 N         137.8971  146.1812  154.9510 N.3     1  UNL1       -0.3170
     28 H         137.1915  146.3677  155.6637 H       1  UNL1        0.1192
     29 H         137.4407  146.0380  154.0501 H       1  UNL1        0.1192
@<TRIPOS>BOND
     1     7     8    1
     2     8     9   ar
     3     9    10   ar
     4    10    11   ar
     5    11     1    1
     6     1     2   ar
     7     2     3   ar
     8     3    18    1
     9    18    19    2
    10    18    20    2
    11    18    21    1
    12    21    22   ar
    13    22    23   ar
    14    23    24   ar
    15    24    26    1
    16    26    27    1
    17    24    25   ar
    18     3     4   ar
    19     4     5   ar
    20     5     6   ar
    21     6    14    1
    22    14    15    1
    23    14    16    2
    24    14    17    2
    25    11    12   ar
    26    12    13   ar
    27    13     8   ar
    28     6     1   ar
    29    25    21   ar
    30    27    28    1
    31    27    29    1
@<TRIPOS>MOLECULE
*****
 29 31 0 0 0
SMALL
GASTEIGER

@<TRIPOS>ATOM
      1 C         140.5161  140.0702  164.7061 C.ar    1  UNL1        0.0184
      2 C         141.2033  140.8042  163.5930 C.ar    1  UNL1        0.0200
      3 C         140.6289  140.7739  162.2077 C.ar    1  UNL1        0.1109
      4 C         139.3673  140.0096  161.9354 C.ar    1  UNL1        0.0201
      5 C         138.6801  139.2755  163.0484 C.ar    1  UNL1        0.0197
      6 C         139.2545  139.3058  164.4338 C.ar    1  UNL1        0.1058
      7 C         142.8136  140.1913  170.2474 C.3     1  UNL1        0.0310
      8 C         142.2392  140.1610  168.8621 C.ar    1  UNL1       -0.0218
      9 C         142.7583  139.1768  167.8563 C.ar    1  UNL1       -0.0043
     10 C         142.1840  139.1465  166.4710 C.ar    1  UNL1       -0.0003
     11 C         141.0905  140.1005  166.0914 C.ar    1  UNL1        0.0013
     12 C         140.5713  141.0847  167.0972 C.ar    1  UNL1       -0.0003
     13 C         141.1457  141.1150  168.4825 C.ar    1  UNL1       -0.0043
     14 S         138.5672  138.5717  165.5468 S.O2    1  UNL1        0.0104
     15 C         137.8800  137.8377  166.6598 C.3     1  UNL1        0.1816
     16 O         139.3452  137.3341  165.2108 O.2     1  UNL1       -0.1686
     17 O         137.7893  139.8094  165.8828 O.2     1  UNL1       -0.1686
     18 S         141.3162  141.5080  161.0946 S.O2    1  UNL1        0.0330
     19 O         140.1100  142.3839  160.9274 O.2     1  UNL1       -0.1638
     20 O         142.5223  140.6321  161.2618 O.2     1  UNL1       -0.1638
     21 C         142.0035  142.2420  159.9816 C.ar    1  UNL1        0.1394
     22 C         143.3791  141.9578  159.4554 C.ar    1  UNL1        0.0256
     23 C         143.6616  142.9293  158.3479 C.ar    1  UNL1        0.0054
     24 C         142.4605  143.8138  158.1897 C.ar    1  UNL1        0.0242
     25 S         141.4358  143.3891  159.1994 S.2     1  UNL1       -0.0714
     26 C         142.3106  144.9276  157.1962 C.3     1  UNL1        0.0988
     27 N         142.5169  146.3496  157.6268 N.3     1  UNL1       -0.3170
     28 H         141.7881  146.6132  158.2900 H       1  UNL1        0.1192
     29 H         142.4725  146.9615  156.8120 H       1  UNL1        0.1192
@<TRIPOS>BOND
     1     7     8    1
     2     8     9   ar
     3     9    10   ar
     4    10    11   ar
     5    11     1    1
     6     1     2   ar
     7     2     3   ar
     8     3    18    1
     9    18    19    2
    10    18    20    2
    11    18    21    1
    12    21    22   ar
    13    22    23   ar
    14    23    24   ar
    15    24    26    1
    16    26    27    1
    17    24    25   ar
    18     3     4   ar
    19     4     5   ar
    20     5     6   ar
    21     6    14    1
    22    14    15    1
    23    14    16    2
    24    14    17    2
    25    11    12   ar
    26    12    13   ar
    27    13     8   ar
    28     6     1   ar
    29    25    21   ar
    30    27    28    1
    31    27    29    1
@<TRIPOS>MOLECULE
*****
 29 31 0 0 0
SMALL
GASTEIGER

@<TRIPOS>ATOM
      1 C         140.0270  141.3608  163.5511 C.ar    1  UNL1        0.0184
      2 C         140.2040  142.3139  162.4065 C.ar    1  UNL1        0.0200
      3 C         139.4436  142.1035  161.1308 C.ar    1  UNL1        0.1109
      4 C         138.5062  140.9399  160.9996 C.ar    1  UNL1        0.0201
      5 C         138.3292  139.9867  162.1442 C.ar    1  UNL1        0.0197
      6 C         139.0896  140.1972  163.4199 C.ar    1  UNL1        0.1058
      7 C         143.0686  142.2026  168.6540 C.3     1  UNL1        0.0310
      8 C         142.3082  141.9921  167.3783 C.ar    1  UNL1       -0.0218
      9 C         140.9413  142.5874  167.2130 C.ar    1  UNL1       -0.0043
     10 C         140.1809  142.3770  165.9372 C.ar    1  UNL1       -0.0003
     11 C         140.7874  141.5712  164.8268 C.ar    1  UNL1        0.0013
     12 C         142.1542  140.9760  164.9922 C.ar    1  UNL1       -0.0003
     13 C         142.9146  141.1864  166.2679 C.ar    1  UNL1       -0.0043
     14 S         138.9126  139.2439  164.5646 S.O2    1  UNL1        0.0104
     15 C         138.7355  138.2908  165.7091 C.3     1  UNL1        0.1816
     16 O         137.8512  140.1333  165.1410 O.2     1  UNL1       -0.1686
     17 O         139.9739  138.3545  163.9881 O.2     1  UNL1       -0.1686
     18 S         139.6206  143.0567  159.9862 S.O2    1  UNL1        0.0330
     19 O         139.2606  144.2026  160.8847 O.2     1  UNL1       -0.1638
     20 O         139.9806  141.9109  159.0876 O.2     1  UNL1       -0.1638
     21 C         139.7976  144.0099  158.8416 C.ar    1  UNL1        0.1394
     22 C         140.3851  145.3876  158.9243 C.ar    1  UNL1        0.0256
     23 C         140.3688  145.9819  157.5471 C.ar    1  UNL1        0.0054
     24 C         139.7712  144.9714  156.6133 C.ar    1  UNL1        0.0242
     25 S         139.4182  143.7527  157.4134 S.2     1  UNL1       -0.0714
     26 C         139.5632  145.1487  155.1384 C.3     1  UNL1        0.0988
     27 N         138.4915  146.0710  154.6376 N.3     1  UNL1       -0.3170
     28 H         137.5767  145.7011  154.8958 H       1  UNL1        0.1192
     29 H         138.5540  146.1452  153.6222 H       1  UNL1        0.1192
@<TRIPOS>BOND
     1     7     8    1
     2     8     9   ar
     3     9    10   ar
     4    10    11   ar
     5    11     1    1
     6     1     2   ar
     7     2     3   ar
     8     3    18    1
     9    18    19    2
    10    18    20    2
    11    18    21    1
    12    21    22   ar
    13    22    23   ar
    14    23    24   ar
    15    24    26    1
    16    26    27    1
    17    24    25   ar
    18     3     4   ar
    19     4     5   ar
    20     5     6   ar
    21     6    14    1
    22    14    15    1
    23    14    16    2
    24    14    17    2
    25    11    12   ar
    26    12    13   ar
    27    13     8   ar
    28     6     1   ar
    29    25    21   ar
    30    27    28    1
    31    27    29    1
