@<TRIPOS>MOLECULE
*****
 39 41 0 0 0
SMALL
GASTEIGER

@<TRIPOS>ATOM
      1 C         139.3516  139.5858  161.0161 C.ar    1  UNL1        0.0597
      2 C         139.2822  138.7276  162.2443 C.ar    1  UNL1        0.0423
      3 C         138.5996  139.2382  163.4785 C.ar    1  UNL1        0.1504
      4 C         137.9864  140.6071  163.4845 C.ar    1  UNL1        0.0744
      5 C         138.0558  141.4654  162.2563 C.ar    1  UNL1        0.1416
      6 C         138.7383  140.9548  161.0221 C.ar    1  UNL1        0.0416
      7 N         141.5273  139.1545  159.6633 N.am    1  UNL1       -0.2644
      8 C         140.0342  139.0752  159.7818 C.2     1  UNL1        0.2508
      9 O         139.2235  138.4853  158.6661 O.2     1  UNL1       -0.2698
     10 H         142.0594  139.5417  160.3956 H       1  UNL1        0.1566
     11 N         143.1897  137.1552  156.7815 N.ar    1  UNL1       -0.2357
     12 C         143.3310  138.5611  156.2780 C.ar    1  UNL1        0.0988
     13 C         142.7255  139.4812  157.2963 C.ar    1  UNL1        0.0565
     14 C         142.2100  138.6439  158.4290 C.ar    1  UNL1        0.1557
     15 N         142.4969  137.2064  158.1109 N.ar    1  UNL1       -0.1534
     16 C         143.6589  135.9158  156.0789 C.3     1  UNL1        0.2423
     17 P         142.9137  134.6260  156.2553 P.3     1  UNL1        0.3677
     18 O         142.1684  133.3362  156.4316 O.2     1  UNL1       -0.2557
     19 O         143.9503  134.1608  157.2345 O.3     1  UNL1       -0.2928
     20 C         145.4708  132.1913  157.9822 C.3     1  UNL1        0.0352
     21 C         144.1527  132.6937  157.4721 C.3     1  UNL1        0.1515
     22 O         141.8769  135.0912  155.2760 O.3     1  UNL1       -0.2928
     23 C         142.2574  135.3531  153.8489 C.3     1  UNL1        0.1515
     24 C         141.7185  134.4780  152.7563 C.3     1  UNL1        0.0352
     25 O         138.5302  138.3799  164.7068 O.3     1  UNL1       -0.4348
     26 C         138.9791  138.9261  166.0297 C.ar    1  UNL1        0.2484
     27 C         140.3218  139.5836  166.1530 C.ar    1  UNL1        0.0626
     28 C         140.7707  140.1298  167.4759 C.ar    1  UNL1        0.0446
     29 C         139.8771  140.0185  168.6755 C.ar    1  UNL1        0.2077
     30 N         138.5345  139.3610  168.5522 N.ar    1  UNL1       -0.1264
     31 N         138.0856  138.8148  167.2293 N.ar    1  UNL1       -0.1086
     32 S         140.3261  140.5646  169.9985 S.O2    1  UNL1        0.0285
     33 C         140.7750  141.1108  171.3214 C.3     1  UNL1        0.1835
     34 O         141.4272  141.3186  169.3135 O.2     1  UNL1       -0.1671
     35 O         139.2249  139.8107  170.6834 O.2     1  UNL1       -0.1671
     36 O         137.4425  142.8343  162.2623 O.3     1  UNL1       -0.4791
     37 C         138.0462  143.9229  163.0992 C.3     1  UNL1        0.1661
     38 C         138.9866  144.9126  162.4779 C.3     1  UNL1        0.0472
     39 C         137.7094  144.0218  164.5577 C.3     1  UNL1        0.0472
@<TRIPOS>BOND
     1    20    21    1
     2    21    19    1
     3    19    17    1
     4    17    18    2
     5    17    16    1
     6    16    11    1
     7    11    12   ar
     8    12    13   ar
     9    13    14   ar
    10    14     7    1
    11     7     8   am
    12     8     9    2
    13     8     1    1
    14     1     2   ar
    15     2     3   ar
    16     3    25    1
    17    25    26    1
    18    26    27   ar
    19    27    28   ar
    20    28    29   ar
    21    29    32    1
    22    32    33    1
    23    32    34    2
    24    32    35    2
    25    29    30   ar
    26    30    31   ar
    27     3     4   ar
    28     4     5   ar
    29     5    36    1
    30    36    37    1
    31    37    38    1
    32    37    39    1
    33     5     6   ar
    34    14    15   ar
    35    17    22    1
    36    22    23    1
    37    23    24    1
    38    15    11   ar
    39     6     1   ar
    40    31    26   ar
    41     7    10    1
@<TRIPOS>MOLECULE
*****
 39 41 0 0 0
SMALL
GASTEIGER

@<TRIPOS>ATOM
      1 C         139.3318  139.5943  160.8875 C.ar    1  UNL1        0.0597
      2 C         139.2496  138.7346  162.1138 C.ar    1  UNL1        0.0423
      3 C         138.5857  139.2573  163.3531 C.ar    1  UNL1        0.1504
      4 C         138.0040  140.6399  163.3660 C.ar    1  UNL1        0.0744
      5 C         138.0862  141.4997  162.1397 C.ar    1  UNL1        0.1416
      6 C         138.7501  140.9769  160.9004 C.ar    1  UNL1        0.0416
      7 N         141.4783  138.8442  159.6304 N.am    1  UNL1       -0.2644
      8 C         139.9957  139.0716  159.6481 C.2     1  UNL1        0.2508
      9 O         139.1771  138.7762  158.4264 O.2     1  UNL1       -0.2698
     10 H         142.0156  139.0381  160.4323 H       1  UNL1        0.1566
     11 N         143.1600  136.8253  156.7736 N.ar    1  UNL1       -0.2357
     12 C         143.1677  138.2089  156.1941 C.ar    1  UNL1        0.0988
     13 C         142.5387  139.1336  157.1939 C.ar    1  UNL1        0.0565
     14 C         142.1422  138.3215  158.3910 C.ar    1  UNL1        0.1557
     15 N         142.5262  136.8949  158.1313 N.ar    1  UNL1       -0.1534
     16 C         143.6925  135.5892  156.1115 C.3     1  UNL1        0.2423
     17 P         142.9821  134.2796  156.2857 P.3     1  UNL1        0.3677
     18 O         142.2718  132.9701  156.4600 O.2     1  UNL1       -0.2557
     19 O         141.8456  134.7844  155.4469 O.3     1  UNL1       -0.2928
     20 C         141.8213  134.3682  152.8826 C.3     1  UNL1        0.0352
     21 C         141.3760  133.9904  154.2642 C.3     1  UNL1        0.1515
     22 O         144.1186  133.7749  157.1246 O.3     1  UNL1       -0.2928
     23 C         144.7276  132.4351  156.8344 C.3     1  UNL1        0.1515
     24 C         145.1430  131.5396  157.9637 C.3     1  UNL1        0.0352
     25 O         138.5035  138.3976  164.5796 O.3     1  UNL1       -0.4348
     26 C         138.9676  138.9315  165.9023 C.ar    1  UNL1        0.2484
     27 C         140.3446  139.5114  166.0356 C.ar    1  UNL1        0.0626
     28 C         140.8086  140.0454  167.3583 C.ar    1  UNL1        0.0446
     29 C         139.8957  139.9994  168.5477 C.ar    1  UNL1        0.2077
     30 N         138.5188  139.4196  168.4143 N.ar    1  UNL1       -0.1264
     31 N         138.0547  138.8856  167.0916 N.ar    1  UNL1       -0.1086
     32 S         140.3597  140.5334  169.8704 S.O2    1  UNL1        0.0285
     33 C         140.8238  141.0673  171.1931 C.3     1  UNL1        0.1835
     34 O         141.7697  140.5722  169.3600 O.2     1  UNL1       -0.1671
     35 O         138.9497  140.4945  170.3807 O.2     1  UNL1       -0.1671
     36 O         137.5045  142.8822  162.1526 O.3     1  UNL1       -0.4791
     37 C         138.1097  143.9424  163.0241 C.3     1  UNL1        0.1661
     38 C         139.1122  144.9009  162.4528 C.3     1  UNL1        0.0472
     39 C         137.7125  144.0443  164.4670 C.3     1  UNL1        0.0472
@<TRIPOS>BOND
     1    20    21    1
     2    21    19    1
     3    19    17    1
     4    17    18    2
     5    17    16    1
     6    16    11    1
     7    11    12   ar
     8    12    13   ar
     9    13    14   ar
    10    14     7    1
    11     7     8   am
    12     8     9    2
    13     8     1    1
    14     1     2   ar
    15     2     3   ar
    16     3    25    1
    17    25    26    1
    18    26    27   ar
    19    27    28   ar
    20    28    29   ar
    21    29    32    1
    22    32    33    1
    23    32    34    2
    24    32    35    2
    25    29    30   ar
    26    30    31   ar
    27     3     4   ar
    28     4     5   ar
    29     5    36    1
    30    36    37    1
    31    37    38    1
    32    37    39    1
    33     5     6   ar
    34    14    15   ar
    35    17    22    1
    36    22    23    1
    37    23    24    1
    38    15    11   ar
    39     6     1   ar
    40    31    26   ar
    41     7    10    1
@<TRIPOS>MOLECULE
*****
 39 41 0 0 0
SMALL
GASTEIGER

@<TRIPOS>ATOM
      1 C         138.5692  140.2351  161.2321 C.ar    1  UNL1        0.0597
      2 C         138.6540  139.2572  162.3663 C.ar    1  UNL1        0.0423
      3 C         138.3255  139.6974  163.7621 C.ar    1  UNL1        0.1504
      4 C         137.9124  141.1155  164.0237 C.ar    1  UNL1        0.0744
      5 C         137.8276  142.0934  162.8894 C.ar    1  UNL1        0.1416
      6 C         138.1560  141.6532  161.4936 C.ar    1  UNL1        0.0416
      7 N         140.1787  139.0645  159.5619 N.am    1  UNL1       -0.2644
      8 C         138.8976  139.7949  159.8362 C.2     1  UNL1        0.2508
      9 O         137.9449  140.0852  158.7145 O.2     1  UNL1       -0.2698
     10 H         140.8040  138.8740  160.2981 H       1  UNL1        0.1566
     11 N         141.6065  138.4049  156.0134 N.ar    1  UNL1       -0.2357
     12 C         140.4185  137.4890  156.0227 C.ar    1  UNL1        0.0988
     13 C         139.7390  137.6247  157.3532 C.ar    1  UNL1        0.0565
     14 C         140.5072  138.6243  158.1660 C.ar    1  UNL1        0.1557
     15 N         141.6612  139.1065  157.3380 N.ar    1  UNL1       -0.1534
     16 C         142.5704  138.5870  154.8787 C.3     1  UNL1        0.2423
     17 P         144.0473  138.5785  155.1405 P.3     1  UNL1        0.3677
     18 O         145.5243  138.5700  155.4021 O.2     1  UNL1       -0.2557
     19 O         143.8861  137.3679  156.0114 O.3     1  UNL1       -0.2928
     20 C         143.1613  135.0632  155.0559 C.3     1  UNL1        0.0352
     21 C         144.2433  136.0105  155.4824 C.3     1  UNL1        0.1515
     22 O         144.2086  139.7891  154.2695 O.3     1  UNL1       -0.2928
     23 C         143.8873  141.1506  154.8109 C.3     1  UNL1        0.1515
     24 C         144.9929  142.1199  155.1075 C.3     1  UNL1        0.0352
     25 O         138.4103  138.7196  164.8965 O.3     1  UNL1       -0.4348
     26 C         138.9423  139.1599  166.2280 C.ar    1  UNL1        0.2484
     27 C         140.3273  139.7264  166.3322 C.ar    1  UNL1        0.0626
     28 C         140.8594  140.1667  167.6638 C.ar    1  UNL1        0.0446
     29 C         140.0063  140.0405  168.8912 C.ar    1  UNL1        0.2077
     30 N         138.6213  139.4740  168.7870 N.ar    1  UNL1       -0.1264
     31 N         138.0893  139.0337  167.4554 N.ar    1  UNL1       -0.1086
     32 S         140.5383  140.4808  170.2228 S.O2    1  UNL1        0.0285
     33 C         141.0703  140.9211  171.5544 C.3     1  UNL1        0.1835
     34 O         141.6311  141.2433  169.5340 O.2     1  UNL1       -0.1671
     35 O         139.4455  139.7183  170.9115 O.2     1  UNL1       -0.1671
     36 O         137.4145  143.5114  163.1510 O.3     1  UNL1       -0.4791
     37 C         138.4179  144.5031  163.6604 C.3     1  UNL1        0.1661
     38 C         138.5326  144.7650  165.1329 C.3     1  UNL1        0.0472
     39 C         139.3066  145.2331  162.6973 C.3     1  UNL1        0.0472
@<TRIPOS>BOND
     1    20    21    1
     2    21    19    1
     3    19    17    1
     4    17    18    2
     5    17    16    1
     6    16    11    1
     7    11    12   ar
     8    12    13   ar
     9    13    14   ar
    10    14     7    1
    11     7     8   am
    12     8     9    2
    13     8     1    1
    14     1     2   ar
    15     2     3   ar
    16     3    25    1
    17    25    26    1
    18    26    27   ar
    19    27    28   ar
    20    28    29   ar
    21    29    32    1
    22    32    33    1
    23    32    34    2
    24    32    35    2
    25    29    30   ar
    26    30    31   ar
    27     3     4   ar
    28     4     5   ar
    29     5    36    1
    30    36    37    1
    31    37    38    1
    32    37    39    1
    33     5     6   ar
    34    14    15   ar
    35    17    22    1
    36    22    23    1
    37    23    24    1
    38    15    11   ar
    39     6     1   ar
    40    31    26   ar
    41     7    10    1
@<TRIPOS>MOLECULE
*****
 39 41 0 0 0
SMALL
GASTEIGER

@<TRIPOS>ATOM
      1 C         138.8174  139.8343  161.5430 C.ar    1  UNL1        0.0597
      2 C         138.1151  139.8452  162.8684 C.ar    1  UNL1        0.0423
      3 C         138.6045  138.9698  163.9837 C.ar    1  UNL1        0.1504
      4 C         139.7963  138.0834  163.7737 C.ar    1  UNL1        0.0744
      5 C         140.4986  138.0725  162.4484 C.ar    1  UNL1        0.1416
      6 C         140.0091  138.9479  161.3330 C.ar    1  UNL1        0.0416
      7 N         138.2817  140.1813  159.0246 N.am    1  UNL1       -0.2644
      8 C         138.3280  140.7097  160.4276 C.2     1  UNL1        0.2508
      9 O         137.8848  142.1136  160.7153 O.2     1  UNL1       -0.2698
     10 H         138.5725  139.2599  158.8358 H       1  UNL1        0.1566
     11 N         136.4782  141.9237  156.0619 N.ar    1  UNL1       -0.2357
     12 C         137.6002  142.8842  156.3235 C.ar    1  UNL1        0.0988
     13 C         138.4124  142.3484  157.4652 C.ar    1  UNL1        0.0565
     14 C         137.7923  141.0568  157.9091 C.ar    1  UNL1        0.1557
     15 N         136.5969  140.7943  157.0419 N.ar    1  UNL1       -0.1534
     16 C         135.4228  142.0673  155.0059 C.3     1  UNL1        0.2423
     17 P         135.3392  141.0702  153.8883 P.3     1  UNL1        0.3677
     18 O         135.2558  140.0732  152.7708 O.2     1  UNL1       -0.2557
     19 O         134.2192  140.3687  154.5978 O.3     1  UNL1       -0.2928
     20 C         132.2247  140.5433  156.2535 C.3     1  UNL1        0.0352
     21 C         133.1035  141.1640  155.2083 C.3     1  UNL1        0.1515
     22 O         136.4594  141.7718  153.1789 O.3     1  UNL1       -0.2928
     23 C         137.6551  140.9951  152.7130 C.3     1  UNL1        0.1515
     24 C         138.5462  140.3190  153.7124 C.3     1  UNL1        0.0352
     25 O         137.9022  138.9808  165.3092 O.3     1  UNL1       -0.4348
     26 C         138.5766  139.5744  166.5104 C.ar    1  UNL1        0.2484
     27 C         139.5928  140.6642  166.3378 C.ar    1  UNL1        0.0626
     28 C         140.2671  141.2579  167.5390 C.ar    1  UNL1        0.0446
     29 C         139.9252  140.7618  168.9127 C.ar    1  UNL1        0.2077
     30 N         138.9090  139.6721  169.0852 N.ar    1  UNL1       -0.1264
     31 N         138.2347  139.0784  167.8840 N.ar    1  UNL1       -0.1086
     32 S         140.5996  141.3555  170.1139 S.O2    1  UNL1        0.0285
     33 C         141.2739  141.9492  171.3151 C.3     1  UNL1        0.1835
     34 O         141.3210  142.3278  169.2283 O.2     1  UNL1       -0.1671
     35 O         139.8781  140.3833  170.9994 O.2     1  UNL1       -0.1671
     36 O         141.6903  137.1861  162.2384 O.3     1  UNL1       -0.4791
     37 C         142.9025  137.7144  161.5303 C.3     1  UNL1        0.1661
     38 C         143.9045  138.5447  162.2763 C.3     1  UNL1        0.0472
     39 C         143.1127  137.4124  160.0760 C.3     1  UNL1        0.0472
@<TRIPOS>BOND
     1    20    21    1
     2    21    19    1
     3    19    17    1
     4    17    18    2
     5    17    16    1
     6    16    11    1
     7    11    12   ar
     8    12    13   ar
     9    13    14   ar
    10    14     7    1
    11     7     8   am
    12     8     9    2
    13     8     1    1
    14     1     2   ar
    15     2     3   ar
    16     3    25    1
    17    25    26    1
    18    26    27   ar
    19    27    28   ar
    20    28    29   ar
    21    29    32    1
    22    32    33    1
    23    32    34    2
    24    32    35    2
    25    29    30   ar
    26    30    31   ar
    27     3     4   ar
    28     4     5   ar
    29     5    36    1
    30    36    37    1
    31    37    38    1
    32    37    39    1
    33     5     6   ar
    34    14    15   ar
    35    17    22    1
    36    22    23    1
    37    23    24    1
    38    15    11   ar
    39     6     1   ar
    40    31    26   ar
    41     7    10    1
@<TRIPOS>MOLECULE
*****
 39 41 0 0 0
SMALL
GASTEIGER

@<TRIPOS>ATOM
      1 C         143.1124  139.3175  160.4805 C.ar    1  UNL1        0.0597
      2 C         143.9882  139.4700  161.6886 C.ar    1  UNL1        0.0423
      3 C         143.5572  138.8942  163.0049 C.ar    1  UNL1        0.1504
      4 C         142.2504  138.1658  163.1129 C.ar    1  UNL1        0.0744
      5 C         141.3746  138.0132  161.9048 C.ar    1  UNL1        0.1416
      6 C         141.8056  138.5891  160.5885 C.ar    1  UNL1        0.0416
      7 N         143.3833  139.0920  157.9064 N.am    1  UNL1       -0.2644
      8 C         143.5435  139.8934  159.1641 C.2     1  UNL1        0.2508
      9 O         144.1346  141.2708  159.1057 O.2     1  UNL1       -0.2698
     10 H         142.9954  138.1879  157.9448 H       1  UNL1        0.1566
     11 N         145.1946  140.5099  154.7800 N.ar    1  UNL1       -0.2357
     12 C         143.7605  140.5982  154.3490 C.ar    1  UNL1        0.0988
     13 C         142.9074  140.0778  155.4678 C.ar    1  UNL1        0.0565
     14 C         143.8144  139.6679  156.5901 C.ar    1  UNL1        0.1557
     15 N         145.2278  139.9349  156.1650 N.ar    1  UNL1       -0.1534
     16 C         146.3861  140.9238  153.9684 C.3     1  UNL1        0.2423
     17 P         147.0976  142.2068  154.2810 P.3     1  UNL1        0.3677
     18 O         147.8090  143.4898  154.5936 O.2     1  UNL1       -0.2557
     19 O         147.9752  141.4822  155.2580 O.3     1  UNL1       -0.2928
     20 C         150.4861  141.1840  154.6610 C.3     1  UNL1        0.0352
     21 C         149.4081  141.8925  155.4266 C.3     1  UNL1        0.1515
     22 O         146.2199  142.9315  153.3039 O.3     1  UNL1       -0.2928
     23 C         145.8428  144.3619  153.5521 C.3     1  UNL1        0.1515
     24 C         144.4080  144.7875  153.4518 C.3     1  UNL1        0.0352
     25 O         144.4329  139.0467  164.2131 O.3     1  UNL1       -0.4348
     26 C         143.8220  139.3531  165.5484 C.ar    1  UNL1        0.2484
     27 C         143.1609  140.6788  165.7843 C.ar    1  UNL1        0.0626
     28 C         142.5500  140.9852  167.1195 C.ar    1  UNL1        0.0446
     29 C         142.6001  139.9658  168.2189 C.ar    1  UNL1        0.2077
     30 N         143.2611  138.6402  167.9830 N.ar    1  UNL1       -0.1264
     31 N         143.8721  138.3338  166.6477 N.ar    1  UNL1       -0.1086
     32 S         141.9892  140.2722  169.5541 S.O2    1  UNL1        0.0285
     33 C         141.3782  140.5786  170.8894 C.3     1  UNL1        0.1835
     34 O         143.3321  140.1173  170.2041 O.2     1  UNL1       -0.1671
     35 O         140.6462  140.4271  168.9041 O.2     1  UNL1       -0.1671
     36 O         140.0678  137.2848  162.0128 O.3     1  UNL1       -0.4791
     37 C         138.8857  137.9552  162.6478 C.3     1  UNL1        0.1661
     38 C         138.8170  138.0993  164.1393 C.3     1  UNL1        0.0472
     39 C         137.7724  138.4815  161.7913 C.3     1  UNL1        0.0472
@<TRIPOS>BOND
     1    20    21    1
     2    21    19    1
     3    19    17    1
     4    17    18    2
     5    17    16    1
     6    16    11    1
     7    11    12   ar
     8    12    13   ar
     9    13    14   ar
    10    14     7    1
    11     7     8   am
    12     8     9    2
    13     8     1    1
    14     1     2   ar
    15     2     3   ar
    16     3    25    1
    17    25    26    1
    18    26    27   ar
    19    27    28   ar
    20    28    29   ar
    21    29    32    1
    22    32    33    1
    23    32    34    2
    24    32    35    2
    25    29    30   ar
    26    30    31   ar
    27     3     4   ar
    28     4     5   ar
    29     5    36    1
    30    36    37    1
    31    37    38    1
    32    37    39    1
    33     5     6   ar
    34    14    15   ar
    35    17    22    1
    36    22    23    1
    37    23    24    1
    38    15    11   ar
    39     6     1   ar
    40    31    26   ar
    41     7    10    1
@<TRIPOS>MOLECULE
*****
 39 41 0 0 0
SMALL
GASTEIGER

@<TRIPOS>ATOM
      1 C         139.0502  140.2827  160.8762 C.ar    1  UNL1        0.0597
      2 C         138.8338  139.3671  162.0445 C.ar    1  UNL1        0.0423
      3 C         138.2450  139.9009  163.3166 C.ar    1  UNL1        0.1504
      4 C         137.8726  141.3502  163.4204 C.ar    1  UNL1        0.0744
      5 C         138.0890  142.2658  162.2522 C.ar    1  UNL1        0.1416
      6 C         138.6778  141.7320  160.9800 C.ar    1  UNL1        0.0416
      7 N         139.3012  140.3940  158.2926 N.am    1  UNL1       -0.2644
      8 C         139.6390  139.7489  159.6040 C.2     1  UNL1        0.2508
      9 O         140.5656  138.5699  159.6432 O.2     1  UNL1       -0.2698
     10 H         138.6931  141.1678  158.2669 H       1  UNL1        0.1566
     11 N         141.4645  139.3197  155.2543 N.ar    1  UNL1       -0.2357
     12 C         140.1274  138.7581  154.8711 C.ar    1  UNL1        0.0988
     13 C         139.1543  139.0922  155.9627 C.ar    1  UNL1        0.0565
     14 C         139.8900  139.8603  157.0204 C.ar    1  UNL1        0.1557
     15 N         141.3178  140.0009  156.5826 N.ar    1  UNL1       -0.1534
     16 C         142.7267  139.2180  154.4503 C.3     1  UNL1        0.2423
     17 P         143.9566  138.6118  155.0585 P.3     1  UNL1        0.3677
     18 O         145.1865  138.0055  155.6666 O.2     1  UNL1       -0.2557
     19 O         144.6296  139.9521  155.0338 O.3     1  UNL1       -0.2928
     20 C         145.6355  141.6120  153.3067 C.3     1  UNL1        0.0352
     21 C         144.4591  140.8552  153.8483 C.3     1  UNL1        0.1515
     22 O         143.2836  137.2714  155.0832 O.3     1  UNL1       -0.2928
     23 C         144.0531  136.0534  155.5008 C.3     1  UNL1        0.1515
     24 C         143.4810  135.1200  156.5262 C.3     1  UNL1        0.0352
     25 O         138.0286  138.9853  164.4850 O.3     1  UNL1       -0.4348
     26 C         138.5862  139.3424  165.8309 C.ar    1  UNL1        0.2484
     27 C         139.8933  140.0714  165.9319 C.ar    1  UNL1        0.0626
     28 C         140.4509  140.4285  167.2778 C.ar    1  UNL1        0.0446
     29 C         139.7013  140.0565  168.5228 C.ar    1  UNL1        0.2077
     30 N         138.3943  139.3276  168.4218 N.ar    1  UNL1       -0.1264
     31 N         137.8367  138.9705  167.0759 N.ar    1  UNL1       -0.1086
     32 S         140.2589  140.4136  169.8688 S.O2    1  UNL1        0.0285
     33 C         140.8165  140.7707  171.2148 C.3     1  UNL1        0.1835
     34 O         138.9716  141.0987  170.2203 O.2     1  UNL1       -0.1671
     35 O         141.5462  139.7285  169.5173 O.2     1  UNL1       -0.1671
     36 O         137.7166  143.7151  162.3560 O.3     1  UNL1       -0.4791
     37 C         138.6463  144.6821  163.0273 C.3     1  UNL1        0.1661
     38 C         138.7309  144.7249  164.5243 C.3     1  UNL1        0.0472
     39 C         139.4914  145.6063  162.2016 C.3     1  UNL1        0.0472
@<TRIPOS>BOND
     1    20    21    1
     2    21    19    1
     3    19    17    1
     4    17    18    2
     5    17    16    1
     6    16    11    1
     7    11    12   ar
     8    12    13   ar
     9    13    14   ar
    10    14     7    1
    11     7     8   am
    12     8     9    2
    13     8     1    1
    14     1     2   ar
    15     2     3   ar
    16     3    25    1
    17    25    26    1
    18    26    27   ar
    19    27    28   ar
    20    28    29   ar
    21    29    32    1
    22    32    33    1
    23    32    34    2
    24    32    35    2
    25    29    30   ar
    26    30    31   ar
    27     3     4   ar
    28     4     5   ar
    29     5    36    1
    30    36    37    1
    31    37    38    1
    32    37    39    1
    33     5     6   ar
    34    14    15   ar
    35    17    22    1
    36    22    23    1
    37    23    24    1
    38    15    11   ar
    39     6     1   ar
    40    31    26   ar
    41     7    10    1
@<TRIPOS>MOLECULE
*****
 39 41 0 0 0
SMALL
GASTEIGER

@<TRIPOS>ATOM
      1 C         141.8449  139.9598  160.7737 C.ar    1  UNL1        0.0597
      2 C         141.1410  139.3037  161.9242 C.ar    1  UNL1        0.0423
      3 C         140.4160  140.1409  162.9358 C.ar    1  UNL1        0.1504
      4 C         140.3949  141.6343  162.7969 C.ar    1  UNL1        0.0744
      5 C         141.0989  142.2905  161.6463 C.ar    1  UNL1        0.1416
      6 C         141.8238  141.4532  160.6347 C.ar    1  UNL1        0.0416
      7 N         141.8770  138.7049  158.4989 N.am    1  UNL1       -0.2644
      8 C         142.5699  139.1226  159.7620 C.2     1  UNL1        0.2508
      9 O         143.9879  138.7030  160.0134 O.2     1  UNL1       -0.2698
     10 H         140.9463  138.9803  158.3339 H       1  UNL1        0.1566
     11 N         143.5125  135.9583  156.2974 N.ar    1  UNL1       -0.2357
     12 C         143.9230  137.2006  155.5635 C.ar    1  UNL1        0.0988
     13 C         143.3602  138.3807  156.2990 C.ar    1  UNL1        0.0565
     14 C         142.6020  137.8677  157.4873 C.ar    1  UNL1        0.1557
     15 N         142.6961  136.3707  157.4863 N.ar    1  UNL1       -0.1534
     16 C         143.8577  134.5510  155.9102 C.3     1  UNL1        0.2423
     17 P         142.8646  133.4480  156.1278 P.3     1  UNL1        0.3677
     18 O         141.8714  132.3452  156.3453 O.2     1  UNL1       -0.2557
     19 O         143.7814  132.8213  157.1360 O.3     1  UNL1       -0.2928
     20 C         144.8549  130.8798  155.7839 C.3     1  UNL1        0.0352
     21 C         144.9995  132.0742  156.6797 C.3     1  UNL1        0.1515
     22 O         141.9477  134.0749  155.1196 O.3     1  UNL1       -0.2928
     23 C         142.2584  133.9697  153.6558 C.3     1  UNL1        0.1515
     24 C         142.0412  132.6727  152.9343 C.3     1  UNL1        0.0352
     25 O         139.7120  139.4847  164.0865 O.3     1  UNL1       -0.4348
     26 C         140.2028  139.7003  165.4874 C.ar    1  UNL1        0.2484
     27 C         141.6602  139.5401  165.8045 C.ar    1  UNL1        0.0626
     28 C         142.1510  139.7557  167.2054 C.ar    1  UNL1        0.0446
     29 C         141.1844  140.1314  168.2893 C.ar    1  UNL1        0.2077
     30 N         139.7272  140.2916  167.9722 N.ar    1  UNL1       -0.1264
     31 N         139.2363  140.0761  166.5712 N.ar    1  UNL1       -0.1086
     32 S         141.6753  140.3470  169.6902 S.O2    1  UNL1        0.0285
     33 C         142.1661  140.5626  171.0912 C.3     1  UNL1        0.1835
     34 O         140.5971  139.4414  170.2073 O.2     1  UNL1       -0.1671
     35 O         142.7535  141.2526  169.1731 O.2     1  UNL1       -0.1671
     36 O         141.0778  143.7839  161.5073 O.3     1  UNL1       -0.4791
     37 C         140.7558  144.6430  162.6939 C.3     1  UNL1        0.1661
     38 C         141.8392  145.0285  163.6570 C.3     1  UNL1        0.0472
     39 C         139.3502  145.1168  162.9175 C.3     1  UNL1        0.0472
@<TRIPOS>BOND
     1    20    21    1
     2    21    19    1
     3    19    17    1
     4    17    18    2
     5    17    16    1
     6    16    11    1
     7    11    12   ar
     8    12    13   ar
     9    13    14   ar
    10    14     7    1
    11     7     8   am
    12     8     9    2
    13     8     1    1
    14     1     2   ar
    15     2     3   ar
    16     3    25    1
    17    25    26    1
    18    26    27   ar
    19    27    28   ar
    20    28    29   ar
    21    29    32    1
    22    32    33    1
    23    32    34    2
    24    32    35    2
    25    29    30   ar
    26    30    31   ar
    27     3     4   ar
    28     4     5   ar
    29     5    36    1
    30    36    37    1
    31    37    38    1
    32    37    39    1
    33     5     6   ar
    34    14    15   ar
    35    17    22    1
    36    22    23    1
    37    23    24    1
    38    15    11   ar
    39     6     1   ar
    40    31    26   ar
    41     7    10    1
@<TRIPOS>MOLECULE
*****
 39 41 0 0 0
SMALL
GASTEIGER

@<TRIPOS>ATOM
      1 C         138.7160  142.8575  158.5776 C.ar    1  UNL1        0.0597
      2 C         137.8833  141.9976  157.6736 C.ar    1  UNL1        0.0423
      3 C         137.9934  142.1474  156.1852 C.ar    1  UNL1        0.1504
      4 C         138.9362  143.1572  155.6008 C.ar    1  UNL1        0.0744
      5 C         139.7688  144.0171  156.5047 C.ar    1  UNL1        0.1416
      6 C         139.6588  143.8673  157.9931 C.ar    1  UNL1        0.0416
      7 N         138.9585  143.8567  160.9636 N.am    1  UNL1       -0.2644
      8 C         138.6060  142.7077  160.0661 C.2     1  UNL1        0.2508
      9 O         138.1434  141.4090  160.6570 O.2     1  UNL1       -0.2698
     10 H         139.2621  144.7091  160.5757 H       1  UNL1        0.1566
     11 N         139.3596  143.1618  164.7612 N.ar    1  UNL1       -0.2357
     12 C         137.9985  143.7910  164.7239 C.ar    1  UNL1        0.0988
     13 C         137.6825  144.1280  163.2967 C.ar    1  UNL1        0.0565
     14 C         138.8485  143.7069  162.4521 C.ar    1  UNL1        0.1557
     15 N         139.8849  143.1098  163.3571 N.ar    1  UNL1       -0.1534
     16 C         140.0706  142.6708  165.9872 C.3     1  UNL1        0.2423
     17 P         141.1134  141.5988  165.8709 P.3     1  UNL1        0.3677
     18 O         142.1563  140.5270  165.7545 O.2     1  UNL1       -0.2557
     19 O         140.0374  140.5539  165.8520 O.3     1  UNL1       -0.2928
     20 C         138.6080  139.6963  163.8593 C.3     1  UNL1        0.0352
     21 C         139.8784  139.6627  164.6561 C.3     1  UNL1        0.1515
     22 O         142.1895  142.6438  165.8897 O.3     1  UNL1       -0.2928
     23 C         143.3051  142.5896  164.8885 C.3     1  UNL1        0.1515
     24 C         144.0883  143.8288  164.5705 C.3     1  UNL1        0.0352
     25 O         137.1607  141.2875  155.2812 O.3     1  UNL1       -0.4348
     26 C         135.7415  140.9686  155.6474 C.ar    1  UNL1        0.2484
     27 C         134.6133  141.5188  154.8259 C.ar    1  UNL1        0.0626
     28 C         133.1940  141.1999  155.1920 C.ar    1  UNL1        0.0446
     29 C         132.9029  140.3310  156.3796 C.ar    1  UNL1        0.2077
     30 N         134.0311  139.7809  157.2010 N.ar    1  UNL1       -0.1264
     31 N         135.4503  140.0998  156.8349 N.ar    1  UNL1       -0.1086
     32 S         131.4837  140.0122  156.7458 S.O2    1  UNL1        0.0285
     33 C         130.0644  139.6934  157.1119 C.3     1  UNL1        0.1835
     34 O         131.9686  139.0279  157.7685 O.2     1  UNL1       -0.1671
     35 O         130.9987  140.9964  155.7230 O.2     1  UNL1       -0.1671
     36 O         140.7116  145.0269  155.9202 O.3     1  UNL1       -0.4791
     37 C         140.1790  146.3070  155.3480 C.3     1  UNL1        0.1661
     38 C         140.5981  146.7473  153.9767 C.3     1  UNL1        0.0472
     39 C         139.2272  147.1471  156.1472 C.3     1  UNL1        0.0472
@<TRIPOS>BOND
     1    20    21    1
     2    21    19    1
     3    19    17    1
     4    17    18    2
     5    17    16    1
     6    16    11    1
     7    11    12   ar
     8    12    13   ar
     9    13    14   ar
    10    14     7    1
    11     7     8   am
    12     8     9    2
    13     8     1    1
    14     1     2   ar
    15     2     3   ar
    16     3    25    1
    17    25    26    1
    18    26    27   ar
    19    27    28   ar
    20    28    29   ar
    21    29    32    1
    22    32    33    1
    23    32    34    2
    24    32    35    2
    25    29    30   ar
    26    30    31   ar
    27     3     4   ar
    28     4     5   ar
    29     5    36    1
    30    36    37    1
    31    37    38    1
    32    37    39    1
    33     5     6   ar
    34    14    15   ar
    35    17    22    1
    36    22    23    1
    37    23    24    1
    38    15    11   ar
    39     6     1   ar
    40    31    26   ar
    41     7    10    1
@<TRIPOS>MOLECULE
*****
 39 41 0 0 0
SMALL
GASTEIGER

@<TRIPOS>ATOM
      1 C         138.0354  141.9614  157.6396 C.ar    1  UNL1        0.0597
      2 C         136.9858  141.1913  156.8944 C.ar    1  UNL1        0.0423
      3 C         136.7740  141.4364  155.4298 C.ar    1  UNL1        0.1504
      4 C         137.6117  142.4516  154.7104 C.ar    1  UNL1        0.0744
      5 C         138.6613  143.2217  155.4556 C.ar    1  UNL1        0.1416
      6 C         138.8731  142.9766  156.9201 C.ar    1  UNL1        0.0416
      7 N         138.5279  142.8672  160.0243 N.am    1  UNL1       -0.2644
      8 C         138.2473  141.7163  159.1042 C.2     1  UNL1        0.2508
      9 O         138.1785  140.3203  159.6487 O.2     1  UNL1       -0.2698
     10 H         138.5731  143.7834  159.6669 H       1  UNL1        0.1566
     11 N         139.7063  141.8859  163.5900 N.ar    1  UNL1       -0.2357
     12 C         138.4253  142.6042  163.8955 C.ar    1  UNL1        0.0988
     13 C         137.8280  143.0592  162.5969 C.ar    1  UNL1        0.0565
     14 C         138.7398  142.6221  161.4890 C.ar    1  UNL1        0.1557
     15 N         139.9006  141.8970  162.1027 N.ar    1  UNL1       -0.1534
     16 C         140.6305  141.2654  164.5953 C.3     1  UNL1        0.2423
     17 P         140.6078  139.7825  164.8201 P.3     1  UNL1        0.3677
     18 O         140.5852  138.2996  165.0448 O.2     1  UNL1       -0.2557
     19 O         139.5499  139.9576  165.8689 O.3     1  UNL1       -0.2928
     20 C         137.6894  138.5358  166.9946 C.3     1  UNL1        0.0352
     21 C         138.2648  139.1899  165.7735 C.3     1  UNL1        0.1515
     22 O         141.6658  139.6075  163.7712 O.3     1  UNL1       -0.2928
     23 C         142.9165  138.8423  164.0878 C.3     1  UNL1        0.1515
     24 C         143.8730  139.3624  165.1197 C.3     1  UNL1        0.0352
     25 O         135.7244  140.6662  154.6846 O.3     1  UNL1       -0.4348
     26 C         134.4179  140.3445  155.3476 C.ar    1  UNL1        0.2484
     27 C         133.2789  141.3177  155.2722 C.ar    1  UNL1        0.0626
     28 C         131.9724  140.9960  155.9351 C.ar    1  UNL1        0.0446
     29 C         131.8049  139.7010  156.6735 C.ar    1  UNL1        0.2077
     30 N         132.9439  138.7279  156.7489 N.ar    1  UNL1       -0.1264
     31 N         134.2504  139.0496  156.0859 N.ar    1  UNL1       -0.1086
     32 S         130.4984  139.3793  157.3365 S.O2    1  UNL1        0.0285
     33 C         129.1919  139.0575  157.9995 C.3     1  UNL1        0.1835
     34 O         129.7952  140.3273  156.4109 O.2     1  UNL1       -0.1671
     35 O         131.2016  138.4313  158.2622 O.2     1  UNL1       -0.1671
     36 O         139.4990  144.2369  154.7362 O.3     1  UNL1       -0.4791
     37 C         139.6682  145.6123  155.3103 C.3     1  UNL1        0.1661
     38 C         140.9320  145.9730  156.0333 C.3     1  UNL1        0.0472
     39 C         138.5735  146.6271  155.1614 C.3     1  UNL1        0.0472
@<TRIPOS>BOND
     1    20    21    1
     2    21    19    1
     3    19    17    1
     4    17    18    2
     5    17    16    1
     6    16    11    1
     7    11    12   ar
     8    12    13   ar
     9    13    14   ar
    10    14     7    1
    11     7     8   am
    12     8     9    2
    13     8     1    1
    14     1     2   ar
    15     2     3   ar
    16     3    25    1
    17    25    26    1
    18    26    27   ar
    19    27    28   ar
    20    28    29   ar
    21    29    32    1
    22    32    33    1
    23    32    34    2
    24    32    35    2
    25    29    30   ar
    26    30    31   ar
    27     3     4   ar
    28     4     5   ar
    29     5    36    1
    30    36    37    1
    31    37    38    1
    32    37    39    1
    33     5     6   ar
    34    14    15   ar
    35    17    22    1
    36    22    23    1
    37    23    24    1
    38    15    11   ar
    39     6     1   ar
    40    31    26   ar
    41     7    10    1
