@<TRIPOS>MOLECULE
*****
 37 41 0 0 0
SMALL
GASTEIGER

@<TRIPOS>ATOM
      1 C         141.5064  139.5290  160.1893 C.3     1  UNL1        0.0806
      2 C         141.2155  139.5178  158.7178 C.3     1  UNL1        0.0108
      3 C         141.7404  138.4065  157.8579 C.3     1  UNL1        0.0165
      4 C         142.5563  137.3063  158.4696 C.3     1  UNL1        0.0580
      5 C         142.8472  137.3175  159.9410 C.3     1  UNL1        0.0208
      6 C         142.3222  138.4288  160.8009 C.3     1  UNL1        0.0323
      7 C         142.6132  138.4400  162.2724 C.ar    1  UNL1       -0.0220
      8 C         143.8700  139.0795  162.7836 C.ar    1  UNL1       -0.0038
      9 C         144.1609  139.0907  164.2551 C.ar    1  UNL1        0.0064
     10 C         143.1949  138.4622  165.2153 C.ar    1  UNL1        0.0345
     11 BR        143.4859  138.4734  166.6869 Br      1  UNL1       -0.0490
     12 C         141.9381  137.8227  164.7041 C.ar    1  UNL1        0.0064
     13 C         141.6473  137.8116  163.2327 C.ar    1  UNL1       -0.0038
     14 N         143.0812  136.1950  157.6097 N.3     1  UNL1       -0.2697
     15 C         143.2938  136.4189  156.1418 C.3     1  UNL1        0.1046
     16 C         143.8187  135.3076  155.2819 C.3     1  UNL1        0.1595
     17 O         144.1311  133.9723  155.8899 O.3     1  UNL1       -0.3508
     18 C         143.9185  133.7485  157.3578 C.3     1  UNL1        0.1595
     19 C         143.3935  134.8598  158.2177 C.3     1  UNL1        0.1046
     20 O         139.5149  140.7248  161.3531 O.2     1  UNL1       -0.2751
     21 C         140.9815  140.6403  161.0492 C.2     1  UNL1        0.2227
     22 N         141.9230  141.6671  161.6052 N.am    1  UNL1       -0.2986
     23 H         142.8855  141.6116  161.4058 H       1  UNL1        0.1500
     24 C         141.3980  142.7784  162.4651 C.3     1  UNL1        0.1170
     25 C         141.4381  142.6535  163.9593 C.ar    1  UNL1       -0.0003
     26 C         142.7567  142.5964  164.6721 C.ar    1  UNL1       -0.0015
     27 C         142.7968  142.4715  166.1664 C.ar    1  UNL1        0.0111
     28 C         141.5183  142.4037  166.9479 C.ar    1  UNL1        0.0577
     29 CL        141.5584  142.2789  168.4421 Cl      1  UNL1       -0.0822
     30 C         140.1997  142.4609  166.2351 C.ar    1  UNL1        0.0111
     31 C         140.1596  142.5858  164.7409 C.ar    1  UNL1       -0.0015
     32 C         140.8330  144.0147  161.8307 C.ar    1  UNL1        0.0028
     33 C         140.2240  145.0855  162.6865 C.ar    1  UNL1        0.0183
     34 C         139.6589  146.3217  162.0520 C.ar    1  UNL1        0.0986
     35 N         139.7030  146.4871  160.5618 N.ar    1  UNL1       -0.2423
     36 C         140.3120  145.4163  159.7060 C.ar    1  UNL1        0.0986
     37 C         140.8770  144.1801  160.3405 C.ar    1  UNL1        0.0183
@<TRIPOS>BOND
     1    20    21    2
     2    21    22   am
     3    22    24    1
     4    24    32    1
     5    32    33   ar
     6    33    34   ar
     7    34    35   ar
     8    35    36   ar
     9    36    37   ar
    10    24    25    1
    11    25    26   ar
    12    26    27   ar
    13    27    28   ar
    14    28    29    1
    15    28    30   ar
    16    30    31   ar
    17     1    21    1
    18     1     2    1
    19     2     3    1
    20     3     4    1
    21     4    14    1
    22    14    15    1
    23    15    16    1
    24    16    17    1
    25    17    18    1
    26    18    19    1
    27     4     5    1
    28     5     6    1
    29     6     7    1
    30     7     8   ar
    31     8     9   ar
    32     9    10   ar
    33    10    11    1
    34    10    12   ar
    35    12    13   ar
    36    37    32   ar
    37    31    25   ar
    38     6     1    1
    39    13     7   ar
    40    19    14    1
    41    22    23    1
@<TRIPOS>MOLECULE
*****
 37 41 0 0 0
SMALL
GASTEIGER

@<TRIPOS>ATOM
      1 C         141.4903  139.5390  160.1500 C.3     1  UNL1        0.0806
      2 C         141.1974  139.5279  158.6789 C.3     1  UNL1        0.0108
      3 C         141.7208  138.4164  157.8183 C.3     1  UNL1        0.0165
      4 C         142.5370  137.3159  158.4289 C.3     1  UNL1        0.0580
      5 C         142.8298  137.3269  159.8999 C.3     1  UNL1        0.0208
      6 C         142.3065  138.4385  160.7605 C.3     1  UNL1        0.0323
      7 C         142.5994  138.4495  162.2316 C.ar    1  UNL1       -0.0220
      8 C         141.6285  137.8326  163.1943 C.ar    1  UNL1       -0.0038
      9 C         141.9214  137.8437  164.6653 C.ar    1  UNL1        0.0064
     10 C         143.1852  138.4717  165.1737 C.ar    1  UNL1        0.0345
     11 BR        143.4781  138.4827  166.6449 Br      1  UNL1       -0.0490
     12 C         144.1561  139.0886  164.2111 C.ar    1  UNL1        0.0064
     13 C         143.8632  139.0775  162.7400 C.ar    1  UNL1       -0.0038
     14 N         143.0603  136.2043  157.5683 N.3     1  UNL1       -0.2697
     15 C         143.3842  134.8726  158.1781 C.3     1  UNL1        0.1046
     16 C         143.9075  133.7610  157.3176 C.3     1  UNL1        0.1595
     17 O         144.1070  133.9812  155.8472 O.3     1  UNL1       -0.3508
     18 C         143.7831  135.3128  155.2375 C.3     1  UNL1        0.1595
     19 C         143.2598  136.4244  156.0981 C.3     1  UNL1        0.1046
     20 O         139.4988  140.7445  161.3037 O.2     1  UNL1       -0.2751
     21 C         140.9670  140.6505  161.0106 C.2     1  UNL1        0.2227
     22 N         141.9117  141.6681  161.5780 N.am    1  UNL1       -0.2986
     23 H         142.8752  141.6064  161.3856 H       1  UNL1        0.1500
     24 C         141.3884  142.7797  162.4386 C.3     1  UNL1        0.1170
     25 C         141.4278  142.6536  163.9327 C.ar    1  UNL1       -0.0003
     26 C         140.1495  142.5482  164.7105 C.ar    1  UNL1       -0.0015
     27 C         140.1890  142.4220  166.2047 C.ar    1  UNL1        0.0111
     28 C         141.5066  142.4013  166.9211 C.ar    1  UNL1        0.0577
     29 CL        141.5461  142.2752  168.4152 Cl      1  UNL1       -0.0822
     30 C         142.7849  142.5067  166.1433 C.ar    1  UNL1        0.0111
     31 C         142.7455  142.6328  164.6492 C.ar    1  UNL1       -0.0015
     32 C         140.8256  144.0174  161.8049 C.ar    1  UNL1        0.0028
     33 C         140.8826  144.1900  160.3160 C.ar    1  UNL1        0.0183
     34 C         140.3198  145.4276  159.6824 C.ar    1  UNL1        0.0986
     35 N         139.7001  146.4927  160.5377 N.ar    1  UNL1       -0.2423
     36 C         139.6431  146.3201  162.0266 C.ar    1  UNL1        0.0986
     37 C         140.2059  145.0824  162.6602 C.ar    1  UNL1        0.0183
@<TRIPOS>BOND
     1    20    21    2
     2    21    22   am
     3    22    24    1
     4    24    32    1
     5    32    33   ar
     6    33    34   ar
     7    34    35   ar
     8    35    36   ar
     9    36    37   ar
    10    24    25    1
    11    25    26   ar
    12    26    27   ar
    13    27    28   ar
    14    28    29    1
    15    28    30   ar
    16    30    31   ar
    17     1    21    1
    18     1     2    1
    19     2     3    1
    20     3     4    1
    21     4    14    1
    22    14    15    1
    23    15    16    1
    24    16    17    1
    25    17    18    1
    26    18    19    1
    27     4     5    1
    28     5     6    1
    29     6     7    1
    30     7     8   ar
    31     8     9   ar
    32     9    10   ar
    33    10    11    1
    34    10    12   ar
    35    12    13   ar
    36    37    32   ar
    37    31    25   ar
    38     6     1    1
    39    13     7   ar
    40    19    14    1
    41    22    23    1
@<TRIPOS>MOLECULE
*****
 37 41 0 0 0
SMALL
GASTEIGER

@<TRIPOS>ATOM
      1 C         142.3967  141.0113  164.4966 C.3     1  UNL1        0.0806
      2 C         142.9093  139.9064  165.3721 C.3     1  UNL1        0.0108
      3 C         142.5845  139.8980  166.8365 C.3     1  UNL1        0.0165
      4 C         141.7471  140.9945  167.4253 C.3     1  UNL1        0.0580
      5 C         141.2346  142.0993  166.5498 C.3     1  UNL1        0.0208
      6 C         141.5594  142.1077  165.0854 C.3     1  UNL1        0.0323
      7 C         141.0468  143.2126  164.2098 C.ar    1  UNL1       -0.0220
      8 C         141.9537  144.3415  163.8185 C.ar    1  UNL1       -0.0038
      9 C         141.4411  145.4463  162.9430 C.ar    1  UNL1        0.0064
     10 C         140.0217  145.4222  162.4587 C.ar    1  UNL1        0.0345
     11 BR        139.5091  146.5271  161.5831 Br      1  UNL1       -0.0490
     12 C         139.1148  144.2934  162.8499 C.ar    1  UNL1        0.0064
     13 C         139.6274  143.1886  163.7255 C.ar    1  UNL1       -0.0038
     14 N         141.4223  140.9861  168.8897 N.3     1  UNL1       -0.2697
     15 C         142.1075  141.9472  169.8154 C.3     1  UNL1        0.1046
     16 C         141.7826  141.9388  171.2798 C.3     1  UNL1        0.1595
     17 O         140.7727  140.9693  171.8185 O.3     1  UNL1       -0.3508
     18 C         140.0876  140.0083  170.8928 C.3     1  UNL1        0.1595
     19 C         140.4124  140.0167  169.4284 C.3     1  UNL1        0.1046
     20 O         144.1175  141.3244  162.5753 O.2     1  UNL1       -0.2751
     21 C         142.7215  141.0197  163.0322 C.2     1  UNL1        0.2227
     22 N         141.6505  140.7235  162.0247 N.am    1  UNL1       -0.2986
     23 H         140.7344  140.5235  162.3245 H       1  UNL1        0.1500
     24 C         141.9753  140.7319  160.5603 C.3     1  UNL1        0.1170
     25 C         141.9758  142.0247  159.7996 C.ar    1  UNL1       -0.0003
     26 C         143.2081  142.4619  159.0645 C.ar    1  UNL1       -0.0015
     27 C         143.2085  143.7547  158.3038 C.ar    1  UNL1        0.0111
     28 C         141.9767  144.6103  158.2781 C.ar    1  UNL1        0.0577
     29 CL        141.9772  145.9030  157.5174 Cl      1  UNL1       -0.0822
     30 C         140.7444  144.1730  159.0132 C.ar    1  UNL1        0.0111
     31 C         140.7439  142.8803  159.7739 C.ar    1  UNL1       -0.0015
     32 C         142.2997  139.4475  159.8566 C.ar    1  UNL1        0.0028
     33 C         142.9342  138.3178  160.6123 C.ar    1  UNL1        0.0183
     34 C         143.2585  137.0334  159.9087 C.ar    1  UNL1        0.0986
     35 N         142.9483  136.8788  158.4493 N.ar    1  UNL1       -0.2423
     36 C         142.3138  138.0084  157.6935 C.ar    1  UNL1        0.0986
     37 C         141.9895  139.2928  158.3972 C.ar    1  UNL1        0.0183
@<TRIPOS>BOND
     1    20    21    2
     2    21    22   am
     3    22    24    1
     4    24    32    1
     5    32    33   ar
     6    33    34   ar
     7    34    35   ar
     8    35    36   ar
     9    36    37   ar
    10    24    25    1
    11    25    26   ar
    12    26    27   ar
    13    27    28   ar
    14    28    29    1
    15    28    30   ar
    16    30    31   ar
    17     1    21    1
    18     1     2    1
    19     2     3    1
    20     3     4    1
    21     4    14    1
    22    14    15    1
    23    15    16    1
    24    16    17    1
    25    17    18    1
    26    18    19    1
    27     4     5    1
    28     5     6    1
    29     6     7    1
    30     7     8   ar
    31     8     9   ar
    32     9    10   ar
    33    10    11    1
    34    10    12   ar
    35    12    13   ar
    36    37    32   ar
    37    31    25   ar
    38     6     1    1
    39    13     7   ar
    40    19    14    1
    41    22    23    1
@<TRIPOS>MOLECULE
*****
 37 41 0 0 0
SMALL
GASTEIGER

@<TRIPOS>ATOM
      1 C         139.2553  140.4967  159.9464 C.3     1  UNL1        0.0806
      2 C         139.2756  139.7857  158.6257 C.3     1  UNL1        0.0108
      3 C         138.7695  140.4766  157.3942 C.3     1  UNL1        0.0165
      4 C         138.2431  141.8784  157.4833 C.3     1  UNL1        0.0580
      5 C         138.2229  142.5893  158.8040 C.3     1  UNL1        0.0208
      6 C         138.7290  141.8985  160.0355 C.3     1  UNL1        0.0323
      7 C         138.7087  142.6095  161.3562 C.ar    1  UNL1       -0.0220
      8 C         137.6491  142.2842  162.3669 C.ar    1  UNL1       -0.0038
      9 C         137.6289  142.9952  163.6875 C.ar    1  UNL1        0.0064
     10 C         138.6682  144.0314  163.9974 C.ar    1  UNL1        0.0345
     11 BR        138.6479  144.7424  165.3181 Br      1  UNL1       -0.0490
     12 C         139.7278  144.3567  162.9868 C.ar    1  UNL1        0.0064
     13 C         139.7480  143.6457  161.6661 C.ar    1  UNL1       -0.0038
     14 N         137.7371  142.5693  156.2518 N.3     1  UNL1       -0.2697
     15 C         136.7156  141.8986  155.3818 C.3     1  UNL1        0.1046
     16 C         136.2095  142.5894  154.1503 C.3     1  UNL1        0.1595
     17 O         136.7249  143.9510  153.7888 O.3     1  UNL1       -0.3508
     18 C         137.7463  144.6216  154.6588 C.3     1  UNL1        0.1595
     19 C         138.2524  143.9308  155.8903 C.3     1  UNL1        0.1046
     20 O         139.7168  138.3093  161.2702 O.2     1  UNL1       -0.2751
     21 C         139.7614  139.8059  161.1779 C.2     1  UNL1        0.2227
     22 N         140.3120  140.6115  162.3170 N.am    1  UNL1       -0.2986
     23 H         140.3413  141.5937  162.2564 H       1  UNL1        0.1500
     24 C         140.8181  139.9206  163.5485 C.3     1  UNL1        0.1170
     25 C         139.8483  139.3643  164.5485 C.ar    1  UNL1       -0.0003
     26 C         139.4849  137.9094  164.5116 C.ar    1  UNL1       -0.0015
     27 C         138.5150  137.3531  165.5116 C.ar    1  UNL1        0.0111
     28 C         137.9087  138.2516  166.5484 C.ar    1  UNL1        0.0577
     29 CL        136.9389  137.6952  167.5484 Cl      1  UNL1       -0.0822
     30 C         138.2721  139.7064  166.5853 C.ar    1  UNL1        0.0111
     31 C         139.2419  140.2628  165.5854 C.ar    1  UNL1       -0.0015
     32 C         142.2941  139.7862  163.7801 C.ar    1  UNL1        0.0028
     33 C         143.2637  140.4049  162.8174 C.ar    1  UNL1        0.0183
     34 C         144.7396  140.2705  163.0489 C.ar    1  UNL1        0.0986
     35 N         145.2458  139.5172  164.2432 N.ar    1  UNL1       -0.2423
     36 C         144.2762  138.8984  165.2059 C.ar    1  UNL1        0.0986
     37 C         142.8003  139.0329  164.9744 C.ar    1  UNL1        0.0183
@<TRIPOS>BOND
     1    20    21    2
     2    21    22   am
     3    22    24    1
     4    24    32    1
     5    32    33   ar
     6    33    34   ar
     7    34    35   ar
     8    35    36   ar
     9    36    37   ar
    10    24    25    1
    11    25    26   ar
    12    26    27   ar
    13    27    28   ar
    14    28    29    1
    15    28    30   ar
    16    30    31   ar
    17     1    21    1
    18     1     2    1
    19     2     3    1
    20     3     4    1
    21     4    14    1
    22    14    15    1
    23    15    16    1
    24    16    17    1
    25    17    18    1
    26    18    19    1
    27     4     5    1
    28     5     6    1
    29     6     7    1
    30     7     8   ar
    31     8     9   ar
    32     9    10   ar
    33    10    11    1
    34    10    12   ar
    35    12    13   ar
    36    37    32   ar
    37    31    25   ar
    38     6     1    1
    39    13     7   ar
    40    19    14    1
    41    22    23    1
@<TRIPOS>MOLECULE
*****
 37 41 0 0 0
SMALL
GASTEIGER

@<TRIPOS>ATOM
      1 C         142.2032  139.2713  158.3941 C.3     1  UNL1        0.0806
      2 C         142.1075  139.1417  156.9027 C.3     1  UNL1        0.0108
      3 C         142.3560  137.8153  156.2477 C.3     1  UNL1        0.0165
      4 C         142.7003  136.6186  157.0840 C.3     1  UNL1        0.0580
      5 C         142.7961  136.7483  158.5753 C.3     1  UNL1        0.0208
      6 C         142.5475  138.0746  159.2303 C.3     1  UNL1        0.0323
      7 C         142.6433  138.2042  160.7217 C.ar    1  UNL1       -0.0220
      8 C         143.9321  138.6365  161.3557 C.ar    1  UNL1       -0.0038
      9 C         144.0278  138.7661  162.8470 C.ar    1  UNL1        0.0064
     10 C         142.8347  138.4634  163.7043 C.ar    1  UNL1        0.0345
     11 BR        142.9305  138.5930  165.1956 Br      1  UNL1       -0.0490
     12 C         141.5459  138.0311  163.0702 C.ar    1  UNL1        0.0064
     13 C         141.4502  137.9015  161.5789 C.ar    1  UNL1       -0.0038
     14 N         142.9488  135.2923  156.4290 N.3     1  UNL1       -0.2697
     15 C         143.6746  134.2118  157.1747 C.3     1  UNL1        0.1046
     16 C         143.9231  132.8855  156.5196 C.3     1  UNL1        0.1595
     17 O         143.4459  132.6396  155.1189 O.3     1  UNL1       -0.3508
     18 C         142.7202  133.7200  154.3733 C.3     1  UNL1        0.1595
     19 C         142.4717  135.0463  155.0284 C.3     1  UNL1        0.1046
     20 O         140.5845  140.9392  159.5550 O.2     1  UNL1       -0.2751
     21 C         141.9547  140.5976  159.0491 C.2     1  UNL1        0.2227
     22 N         143.0763  141.5823  159.1982 N.am    1  UNL1       -0.2986
     23 H         143.9756  141.3581  158.8662 H       1  UNL1        0.1500
     24 C         142.8278  142.9087  159.8532 C.3     1  UNL1        0.1170
     25 C         143.2938  143.1503  161.2583 C.ar    1  UNL1       -0.0003
     26 C         142.7107  144.2770  162.0587 C.ar    1  UNL1       -0.0015
     27 C         143.1768  144.5186  163.4638 C.ar    1  UNL1        0.0111
     28 C         144.2259  143.6334  164.0687 C.ar    1  UNL1        0.0577
     29 CL        144.6919  143.8750  165.4738 Cl      1  UNL1       -0.0822
     30 C         144.8090  142.5067  163.2684 C.ar    1  UNL1        0.0111
     31 C         144.3430  142.2651  161.8632 C.ar    1  UNL1       -0.0015
     32 C         142.1132  143.9935  159.1030 C.ar    1  UNL1        0.0028
     33 C         140.7948  144.5068  159.6014 C.ar    1  UNL1        0.0183
     34 C         140.0803  145.5915  158.8513 C.ar    1  UNL1        0.0986
     35 N         140.6841  146.1629  157.6027 N.ar    1  UNL1       -0.2423
     36 C         142.0025  145.6496  157.1043 C.ar    1  UNL1        0.0986
     37 C         142.7170  144.5649  157.8545 C.ar    1  UNL1        0.0183
@<TRIPOS>BOND
     1    20    21    2
     2    21    22   am
     3    22    24    1
     4    24    32    1
     5    32    33   ar
     6    33    34   ar
     7    34    35   ar
     8    35    36   ar
     9    36    37   ar
    10    24    25    1
    11    25    26   ar
    12    26    27   ar
    13    27    28   ar
    14    28    29    1
    15    28    30   ar
    16    30    31   ar
    17     1    21    1
    18     1     2    1
    19     2     3    1
    20     3     4    1
    21     4    14    1
    22    14    15    1
    23    15    16    1
    24    16    17    1
    25    17    18    1
    26    18    19    1
    27     4     5    1
    28     5     6    1
    29     6     7    1
    30     7     8   ar
    31     8     9   ar
    32     9    10   ar
    33    10    11    1
    34    10    12   ar
    35    12    13   ar
    36    37    32   ar
    37    31    25   ar
    38     6     1    1
    39    13     7   ar
    40    19    14    1
    41    22    23    1
@<TRIPOS>MOLECULE
*****
 37 41 0 0 0
SMALL
GASTEIGER

@<TRIPOS>ATOM
      1 C         142.4898  139.1310  158.2657 C.3     1  UNL1        0.0806
      2 C         142.4717  138.9013  156.7835 C.3     1  UNL1        0.0108
      3 C         142.6636  137.5178  156.2365 C.3     1  UNL1        0.0165
      4 C         142.8737  136.3640  157.1718 C.3     1  UNL1        0.0580
      5 C         142.8918  136.5937  158.6540 C.3     1  UNL1        0.0208
      6 C         142.6999  137.9772  159.2009 C.3     1  UNL1        0.0323
      7 C         142.7180  138.2069  160.6832 C.ar    1  UNL1       -0.0220
      8 C         141.4847  137.9492  161.4972 C.ar    1  UNL1       -0.0038
      9 C         141.5029  138.1789  162.9794 C.ar    1  UNL1        0.0064
     10 C         142.7543  138.6663  163.6475 C.ar    1  UNL1        0.0345
     11 BR        142.7724  138.8959  165.1298 Br      1  UNL1       -0.0490
     12 C         143.9876  138.9239  162.8335 C.ar    1  UNL1        0.0064
     13 C         143.9694  138.6942  161.3514 C.ar    1  UNL1       -0.0038
     14 N         143.0657  134.9805  156.6249 N.3     1  UNL1       -0.2697
     15 C         143.6077  133.8942  157.5060 C.3     1  UNL1        0.1046
     16 C         143.7997  132.5108  156.9590 C.3     1  UNL1        0.1595
     17 O         143.4496  132.2136  155.5310 O.3     1  UNL1       -0.3508
     18 C         142.9076  133.2999  154.6500 C.3     1  UNL1        0.1595
     19 C         142.7157  134.6833  155.1969 C.3     1  UNL1        0.1046
     20 O         143.4854  141.4015  159.0425 O.2     1  UNL1       -0.2751
     21 C         142.2978  140.5144  158.8127 C.2     1  UNL1        0.2227
     22 N         140.9184  141.0108  159.1298 N.am    1  UNL1       -0.2986
     23 H         140.1389  140.4286  158.9790 H       1  UNL1        0.1500
     24 C         140.7264  142.3943  159.6768 C.3     1  UNL1        0.1170
     25 C         140.5332  142.5981  161.1502 C.ar    1  UNL1       -0.0003
     26 C         141.4135  141.8787  162.1287 C.ar    1  UNL1       -0.0015
     27 C         141.2202  142.0826  163.6022 C.ar    1  UNL1        0.0111
     28 C         140.1467  143.0059  164.0971 C.ar    1  UNL1        0.0577
     29 CL        139.9535  143.2097  165.5706 Cl      1  UNL1       -0.0822
     30 C         139.2664  143.7253  163.1186 C.ar    1  UNL1        0.0111
     31 C         139.4596  143.5215  161.6452 C.ar    1  UNL1       -0.0015
     32 C         140.7276  143.5740  158.7502 C.ar    1  UNL1        0.0028
     33 C         139.6594  143.7085  157.7058 C.ar    1  UNL1        0.0183
     34 C         139.6607  144.8881  156.7793 C.ar    1  UNL1        0.0986
     35 N         140.7302  145.9332  156.8972 N.ar    1  UNL1       -0.2423
     36 C         141.7985  145.7986  157.9415 C.ar    1  UNL1        0.0986
     37 C         141.7972  144.6190  158.8680 C.ar    1  UNL1        0.0183
@<TRIPOS>BOND
     1    20    21    2
     2    21    22   am
     3    22    24    1
     4    24    32    1
     5    32    33   ar
     6    33    34   ar
     7    34    35   ar
     8    35    36   ar
     9    36    37   ar
    10    24    25    1
    11    25    26   ar
    12    26    27   ar
    13    27    28   ar
    14    28    29    1
    15    28    30   ar
    16    30    31   ar
    17     1    21    1
    18     1     2    1
    19     2     3    1
    20     3     4    1
    21     4    14    1
    22    14    15    1
    23    15    16    1
    24    16    17    1
    25    17    18    1
    26    18    19    1
    27     4     5    1
    28     5     6    1
    29     6     7    1
    30     7     8   ar
    31     8     9   ar
    32     9    10   ar
    33    10    11    1
    34    10    12   ar
    35    12    13   ar
    36    37    32   ar
    37    31    25   ar
    38     6     1    1
    39    13     7   ar
    40    19    14    1
    41    22    23    1
@<TRIPOS>MOLECULE
*****
 37 41 0 0 0
SMALL
GASTEIGER

@<TRIPOS>ATOM
      1 C         141.6593  138.7497  161.3789 C.3     1  UNL1        0.0806
      2 C         141.5283  137.5431  162.2606 C.3     1  UNL1        0.0108
      3 C         140.9100  137.6720  163.6211 C.3     1  UNL1        0.0165
      4 C         140.4227  139.0075  164.1000 C.3     1  UNL1        0.0580
      5 C         140.5537  140.2139  163.2184 C.3     1  UNL1        0.0208
      6 C         141.1720  140.0850  161.8578 C.3     1  UNL1        0.0323
      7 C         141.3030  141.2915  160.9762 C.ar    1  UNL1       -0.0220
      8 C         142.6043  142.0347  160.9105 C.ar    1  UNL1       -0.0038
      9 C         142.7352  143.2411  160.0289 C.ar    1  UNL1        0.0064
     10 C         141.5649  143.7044  159.2130 C.ar    1  UNL1        0.0345
     11 BR        141.6959  144.9109  158.3313 Br      1  UNL1       -0.0490
     12 C         140.2637  142.9612  159.2786 C.ar    1  UNL1        0.0064
     13 C         140.1327  141.7548  160.1602 C.ar    1  UNL1       -0.0038
     14 N         139.8044  139.1364  165.4605 N.3     1  UNL1       -0.2697
     15 C         138.4451  138.5593  165.7244 C.3     1  UNL1        0.1046
     16 C         137.8268  138.6882  167.0849 C.3     1  UNL1        0.1595
     17 O         138.5677  139.3942  168.1816 O.3     1  UNL1       -0.3508
     18 C         139.9269  139.9712  167.9178 C.3     1  UNL1        0.1595
     19 C         140.5452  139.8423  166.5572 C.3     1  UNL1        0.1046
     20 O         143.7596  138.7806  159.8499 O.2     1  UNL1       -0.2751
     21 C         142.2776  138.6208  160.0184 C.2     1  UNL1        0.2227
     22 N         141.4141  138.3320  158.8264 N.am    1  UNL1       -0.2986
     23 H         140.4414  138.2272  158.9370 H       1  UNL1        0.1500
     24 C         142.0324  138.2032  157.4659 C.3     1  UNL1        0.1170
     25 C         142.6394  139.4030  156.8012 C.ar    1  UNL1       -0.0003
     26 C         141.9565  140.7356  156.8904 C.ar    1  UNL1       -0.0015
     27 C         142.5637  141.9354  156.2257 C.ar    1  UNL1        0.0111
     28 C         143.8536  141.8027  155.4718 C.ar    1  UNL1        0.0577
     29 CL        144.4606  143.0025  154.8071 Cl      1  UNL1       -0.0822
     30 C         144.5364  140.4701  155.3825 C.ar    1  UNL1        0.0111
     31 C         143.9294  139.2703  156.0472 C.ar    1  UNL1       -0.0015
     32 C         142.0436  136.8743  156.7700 C.ar    1  UNL1        0.0028
     33 C         141.0650  136.5966  155.6677 C.ar    1  UNL1        0.0183
     34 C         141.0763  135.2679  154.9719 C.ar    1  UNL1        0.0986
     35 N         142.0662  134.2168  155.3784 N.ar    1  UNL1       -0.2423
     36 C         143.0448  134.4944  156.4807 C.ar    1  UNL1        0.0986
     37 C         143.0335  135.8232  157.1765 C.ar    1  UNL1        0.0183
@<TRIPOS>BOND
     1    20    21    2
     2    21    22   am
     3    22    24    1
     4    24    32    1
     5    32    33   ar
     6    33    34   ar
     7    34    35   ar
     8    35    36   ar
     9    36    37   ar
    10    24    25    1
    11    25    26   ar
    12    26    27   ar
    13    27    28   ar
    14    28    29    1
    15    28    30   ar
    16    30    31   ar
    17     1    21    1
    18     1     2    1
    19     2     3    1
    20     3     4    1
    21     4    14    1
    22    14    15    1
    23    15    16    1
    24    16    17    1
    25    17    18    1
    26    18    19    1
    27     4     5    1
    28     5     6    1
    29     6     7    1
    30     7     8   ar
    31     8     9   ar
    32     9    10   ar
    33    10    11    1
    34    10    12   ar
    35    12    13   ar
    36    37    32   ar
    37    31    25   ar
    38     6     1    1
    39    13     7   ar
    40    19    14    1
    41    22    23    1
@<TRIPOS>MOLECULE
*****
 37 41 0 0 0
SMALL
GASTEIGER

@<TRIPOS>ATOM
      1 C         141.6275  138.7557  161.3671 C.3     1  UNL1        0.0806
      2 C         141.4979  137.5475  162.2467 C.3     1  UNL1        0.0108
      3 C         140.8843  137.6744  163.6096 C.3     1  UNL1        0.0165
      4 C         140.4002  139.0094  164.0928 C.3     1  UNL1        0.0580
      5 C         140.5297  140.2175  163.2132 C.3     1  UNL1        0.0208
      6 C         141.1434  140.0906  161.8503 C.3     1  UNL1        0.0323
      7 C         141.2729  141.2988  160.9707 C.ar    1  UNL1       -0.0220
      8 C         142.5755  142.0391  160.9004 C.ar    1  UNL1       -0.0038
      9 C         142.7050  143.2472  160.0208 C.ar    1  UNL1        0.0064
     10 C         141.5319  143.7149  159.2115 C.ar    1  UNL1        0.0345
     11 BR        141.6614  144.9230  158.3318 Br      1  UNL1       -0.0490
     12 C         140.2293  142.9745  159.2818 C.ar    1  UNL1        0.0064
     13 C         140.0998  141.7665  160.1614 C.ar    1  UNL1       -0.0038
     14 N         139.7865  139.1363  165.4556 N.3     1  UNL1       -0.2697
     15 C         140.5199  139.8635  166.5436 C.3     1  UNL1        0.1046
     16 C         139.9062  139.9903  167.9064 C.3     1  UNL1        0.1595
     17 O         138.5593  139.3901  168.1813 O.3     1  UNL1       -0.3508
     18 C         137.8260  138.6630  167.0934 C.3     1  UNL1        0.1595
     19 C         138.4396  138.5361  165.7305 C.3     1  UNL1        0.1046
     20 O         143.7265  138.7527  159.8361 O.2     1  UNL1       -0.2751
     21 C         142.2411  138.6288  160.0042 C.2     1  UNL1        0.2227
     22 N         141.3694  138.3780  158.8096 N.am    1  UNL1       -0.2986
     23 H         140.3945  138.2966  158.9200 H       1  UNL1        0.1500
     24 C         141.9830  138.2511  157.4468 C.3     1  UNL1        0.1170
     25 C         141.9944  136.9228  156.7501 C.ar    1  UNL1       -0.0003
     26 C         142.9823  135.8704  157.1579 C.ar    1  UNL1       -0.0015
     27 C         142.9936  134.5420  156.4611 C.ar    1  UNL1        0.0111
     28 C         142.0170  134.2661  155.3566 C.ar    1  UNL1        0.0577
     29 CL        142.0283  132.9378  154.6599 Cl      1  UNL1       -0.0822
     30 C         141.0290  135.3185  154.9488 C.ar    1  UNL1        0.0111
     31 C         141.0177  136.6468  155.6455 C.ar    1  UNL1       -0.0015
     32 C         142.5854  139.4526  156.7806 C.ar    1  UNL1        0.0028
     33 C         141.8722  140.7714  156.8257 C.ar    1  UNL1        0.0183
     34 C         142.4746  141.9728  156.1596 C.ar    1  UNL1        0.0986
     35 N         143.7900  141.8554  155.4484 N.ar    1  UNL1       -0.2423
     36 C         144.5032  140.5366  155.4034 C.ar    1  UNL1        0.0986
     37 C         143.9008  139.3352  156.0695 C.ar    1  UNL1        0.0183
@<TRIPOS>BOND
     1    20    21    2
     2    21    22   am
     3    22    24    1
     4    24    32    1
     5    32    33   ar
     6    33    34   ar
     7    34    35   ar
     8    35    36   ar
     9    36    37   ar
    10    24    25    1
    11    25    26   ar
    12    26    27   ar
    13    27    28   ar
    14    28    29    1
    15    28    30   ar
    16    30    31   ar
    17     1    21    1
    18     1     2    1
    19     2     3    1
    20     3     4    1
    21     4    14    1
    22    14    15    1
    23    15    16    1
    24    16    17    1
    25    17    18    1
    26    18    19    1
    27     4     5    1
    28     5     6    1
    29     6     7    1
    30     7     8   ar
    31     8     9   ar
    32     9    10   ar
    33    10    11    1
    34    10    12   ar
    35    12    13   ar
    36    37    32   ar
    37    31    25   ar
    38     6     1    1
    39    13     7   ar
    40    19    14    1
    41    22    23    1
@<TRIPOS>MOLECULE
*****
 37 41 0 0 0
SMALL
GASTEIGER

@<TRIPOS>ATOM
      1 C         141.2695  144.8629  159.7441 C.3     1  UNL1        0.0806
      2 C         140.5707  145.6026  160.8462 C.3     1  UNL1        0.0108
      3 C         140.5894  145.0585  162.2439 C.3     1  UNL1        0.0165
      4 C         141.3070  143.7748  162.5395 C.3     1  UNL1        0.0580
      5 C         142.0058  143.0352  161.4374 C.3     1  UNL1        0.0208
      6 C         141.9870  143.5793  160.0397 C.3     1  UNL1        0.0323
      7 C         142.6858  142.8397  158.9375 C.ar    1  UNL1       -0.0220
      8 C         141.8872  142.0794  157.9206 C.ar    1  UNL1       -0.0038
      9 C         142.5861  141.3398  156.8185 C.ar    1  UNL1        0.0064
     10 C         144.0835  141.3605  156.7333 C.ar    1  UNL1        0.0345
     11 BR        144.7823  140.6209  155.6312 Br      1  UNL1       -0.0490
     12 C         144.8821  142.1208  157.7503 C.ar    1  UNL1        0.0064
     13 C         144.1833  142.8604  158.8523 C.ar    1  UNL1       -0.0038
     14 N         141.3257  143.2307  163.9372 N.3     1  UNL1       -0.2697
     15 C         140.1928  143.5299  164.8738 C.3     1  UNL1        0.1046
     16 C         140.2115  142.9858  166.2715 C.3     1  UNL1        0.1595
     17 O         141.3632  142.1426  166.7327 O.3     1  UNL1       -0.3508
     18 C         142.4961  141.8435  165.7962 C.3     1  UNL1        0.1595
     19 C         142.4773  142.3875  164.3984 C.3     1  UNL1        0.1046
     20 O         142.4304  146.1719  157.8234 O.2     1  UNL1       -0.2751
     21 C         141.2507  145.4070  158.3463 C.2     1  UNL1        0.2227
     22 N         140.0524  145.1862  157.4716 N.am    1  UNL1       -0.2986
     23 H         139.2782  144.6843  157.8148 H       1  UNL1        0.1500
     24 C         140.0337  145.7303  156.0739 C.3     1  UNL1        0.1170
     25 C         139.6449  147.1584  155.8301 C.ar    1  UNL1       -0.0003
     26 C         138.8572  147.9081  156.8632 C.ar    1  UNL1       -0.0015
     27 C         138.4684  149.3362  156.6194 C.ar    1  UNL1        0.0111
     28 C         138.8674  150.0145  155.3424 C.ar    1  UNL1        0.0577
     29 CL        138.4786  151.4426  155.0986 Cl      1  UNL1       -0.0822
     30 C         139.6551  149.2648  154.3093 C.ar    1  UNL1        0.0111
     31 C         140.0439  147.8368  154.5531 C.ar    1  UNL1       -0.0015
     32 C         140.4037  144.8462  154.9199 C.ar    1  UNL1        0.0028
     33 C         141.8419  144.4999  154.6715 C.ar    1  UNL1        0.0183
     34 C         142.2118  143.6158  153.5176 C.ar    1  UNL1        0.0986
     35 N         141.1437  143.0782  152.6121 N.ar    1  UNL1       -0.2423
     36 C         139.7055  143.4246  152.8604 C.ar    1  UNL1        0.0986
     37 C         139.3356  144.3086  154.0143 C.ar    1  UNL1        0.0183
@<TRIPOS>BOND
     1    20    21    2
     2    21    22   am
     3    22    24    1
     4    24    32    1
     5    32    33   ar
     6    33    34   ar
     7    34    35   ar
     8    35    36   ar
     9    36    37   ar
    10    24    25    1
    11    25    26   ar
    12    26    27   ar
    13    27    28   ar
    14    28    29    1
    15    28    30   ar
    16    30    31   ar
    17     1    21    1
    18     1     2    1
    19     2     3    1
    20     3     4    1
    21     4    14    1
    22    14    15    1
    23    15    16    1
    24    16    17    1
    25    17    18    1
    26    18    19    1
    27     4     5    1
    28     5     6    1
    29     6     7    1
    30     7     8   ar
    31     8     9   ar
    32     9    10   ar
    33    10    11    1
    34    10    12   ar
    35    12    13   ar
    36    37    32   ar
    37    31    25   ar
    38     6     1    1
    39    13     7   ar
    40    19    14    1
    41    22    23    1
