@<TRIPOS>MOLECULE
*****
 30 33 0 0 0
SMALL
GASTEIGER

@<TRIPOS>ATOM
      1 C         140.7879  142.9307  160.9672 C.3     1  UNL1        0.0497
      2 C         141.6907  142.5119  162.0895 C.ar    1  UNL1        0.0351
      3 C         143.1904  142.5064  162.0594 C.ar    1  UNL1        0.0070
      4 C         143.6789  142.0161  163.3902 C.ar    1  UNL1        0.0154
      5 C         142.4811  141.7184  164.2427 C.ar    1  UNL1        0.0596
      6 N         141.2523  142.0248  163.4388 N.ar    1  UNL1       -0.3267
      7 C         142.5075  141.2046  165.6517 C.ar    1  UNL1        0.0158
      8 C         142.6469  139.7339  165.9112 C.ar    1  UNL1        0.0011
      9 C         142.6733  139.2200  167.3202 C.ar    1  UNL1       -0.0042
     10 C         142.5602  140.1769  168.4696 C.ar    1  UNL1       -0.0225
     11 C         142.4207  141.6477  168.2102 C.ar    1  UNL1       -0.0042
     12 C         142.3944  142.1615  166.8012 C.ar    1  UNL1        0.0011
     13 C         142.5866  139.6631  169.8786 C.3     1  UNL1        0.0224
     14 C         142.2393  140.5764  171.0166 C.3     1  UNL1        0.0047
     15 C         142.9602  138.2358  170.1496 C.3     1  UNL1        0.0047
     16 C         144.0505  142.9190  160.9019 C.3     1  UNL1        0.1004
     17 N         144.2210  141.9995  159.7290 N.3     1  UNL1       -0.2646
     18 C         144.9412  142.4746  158.5020 C.3     1  UNL1        0.1049
     19 C         145.1117  141.5552  157.3292 C.3     1  UNL1        0.1595
     20 O         144.5620  140.1606  157.3834 O.3     1  UNL1       -0.3508
     21 C         143.8419  139.6854  158.6104 C.3     1  UNL1        0.1595
     22 C         143.6714  140.6049  159.7832 C.3     1  UNL1        0.1049
     23 C         139.8342  141.8712  163.9027 C.3     1  UNL1        0.1324
     24 C         139.3735  140.5694  164.4883 C.ar    1  UNL1        0.0005
     25 C         139.4023  139.3211  163.6571 C.ar    1  UNL1       -0.0001
     26 C         138.9417  138.0192  164.2427 C.ar    1  UNL1        0.0294
     27 C         138.4522  137.9657  165.6596 C.ar    1  UNL1        0.1401
     28 F         137.9915  136.6638  166.2452 F       1  UNL1       -0.2042
     29 C         138.4233  139.2140  166.4908 C.ar    1  UNL1        0.0294
     30 C         138.8840  140.5158  165.9052 C.ar    1  UNL1       -0.0001
@<TRIPOS>BOND
     1     1     2    1
     2     2     3   ar
     3     3    16    1
     4    16    17    1
     5    17    18    1
     6    18    19    1
     7    19    20    1
     8    20    21    1
     9    21    22    1
    10     3     4   ar
    11     4     5   ar
    12     5     7    1
    13     7     8   ar
    14     8     9   ar
    15     9    10   ar
    16    10    13    1
    17    13    14    1
    18    13    15    1
    19    10    11   ar
    20    11    12   ar
    21     5     6   ar
    22     6    23    1
    23    23    24    1
    24    24    25   ar
    25    25    26   ar
    26    26    27   ar
    27    27    28    1
    28    27    29   ar
    29    29    30   ar
    30     6     2   ar
    31    30    24   ar
    32    22    17    1
    33    12     7   ar
@<TRIPOS>MOLECULE
*****
 30 33 0 0 0
SMALL
GASTEIGER

@<TRIPOS>ATOM
      1 C         140.2595  138.1240  161.3349 C.3     1  UNL1        0.0497
      2 C         141.2895  138.5401  162.3429 C.ar    1  UNL1        0.0351
      3 C         142.7745  138.3805  162.2034 C.ar    1  UNL1        0.0070
      4 C         143.4181  138.9306  163.4417 C.ar    1  UNL1        0.0154
      5 C         142.3310  139.4301  164.3464 C.ar    1  UNL1        0.0596
      6 N         141.0154  139.1888  163.6673 N.ar    1  UNL1       -0.3267
      7 C         142.5252  140.0604  165.6936 C.ar    1  UNL1        0.0158
      8 C         142.4507  139.2189  166.9331 C.ar    1  UNL1        0.0011
      9 C         142.6449  139.8491  168.2803 C.ar    1  UNL1       -0.0042
     10 C         142.9137  141.3208  168.3881 C.ar    1  UNL1       -0.0225
     11 C         142.9882  142.1624  167.1486 C.ar    1  UNL1       -0.0042
     12 C         142.7940  141.5322  165.8014 C.ar    1  UNL1        0.0011
     13 C         143.1079  141.9511  169.7353 C.3     1  UNL1        0.0224
     14 C         144.3766  142.6904  170.0416 C.3     1  UNL1        0.0047
     15 C         142.0334  141.8420  170.7763 C.3     1  UNL1        0.0047
     16 C         143.4901  137.7768  161.0316 C.3     1  UNL1        0.1004
     17 N         143.3790  138.4113  159.6768 N.3     1  UNL1       -0.2646
     18 C         143.8654  139.8140  159.4634 C.3     1  UNL1        0.1049
     19 C         143.7542  140.4484  158.1087 C.3     1  UNL1        0.1595
     20 O         143.1566  139.6800  156.9675 O.3     1  UNL1       -0.3508
     21 C         142.6701  138.2773  157.1809 C.3     1  UNL1        0.1595
     22 C         142.7813  137.6429  158.5356 C.3     1  UNL1        0.1049
     23 C         139.6631  139.5353  164.2162 C.3     1  UNL1        0.1324
     24 C         139.0522  140.8722  163.9169 C.ar    1  UNL1        0.0005
     25 C         138.4474  141.1357  162.5697 C.ar    1  UNL1       -0.0001
     26 C         137.8366  142.4725  162.2704 C.ar    1  UNL1        0.0294
     27 C         137.8305  143.5459  163.3182 C.ar    1  UNL1        0.1401
     28 F         137.2196  144.8828  163.0189 F       1  UNL1       -0.2042
     29 C         138.4353  143.2823  164.6654 C.ar    1  UNL1        0.0294
     30 C         139.0462  141.9455  164.9647 C.ar    1  UNL1       -0.0001
@<TRIPOS>BOND
     1     1     2    1
     2     2     3   ar
     3     3    16    1
     4    16    17    1
     5    17    18    1
     6    18    19    1
     7    19    20    1
     8    20    21    1
     9    21    22    1
    10     3     4   ar
    11     4     5   ar
    12     5     7    1
    13     7     8   ar
    14     8     9   ar
    15     9    10   ar
    16    10    13    1
    17    13    14    1
    18    13    15    1
    19    10    11   ar
    20    11    12   ar
    21     5     6   ar
    22     6    23    1
    23    23    24    1
    24    24    25   ar
    25    25    26   ar
    26    26    27   ar
    27    27    28    1
    28    27    29   ar
    29    29    30   ar
    30     6     2   ar
    31    30    24   ar
    32    22    17    1
    33    12     7   ar
@<TRIPOS>MOLECULE
*****
 30 33 0 0 0
SMALL
GASTEIGER

@<TRIPOS>ATOM
      1 C         140.6361  139.9178  160.3595 C.3     1  UNL1        0.0497
      2 C         141.6048  140.0155  161.5005 C.ar    1  UNL1        0.0351
      3 C         143.0919  139.8399  161.4121 C.ar    1  UNL1        0.0070
      4 C         143.6627  140.0218  162.7873 C.ar    1  UNL1        0.0154
      5 C         142.5284  140.3097  163.7257 C.ar    1  UNL1        0.0596
      6 N         141.2566  140.3058  162.9303 N.ar    1  UNL1       -0.3267
      7 C         142.6454  140.5579  165.2003 C.ar    1  UNL1        0.0158
      8 C         142.4656  139.4261  166.1680 C.ar    1  UNL1        0.0011
      9 C         142.5826  139.6743  167.6427 C.ar    1  UNL1       -0.0042
     10 C         142.8793  141.0544  168.1497 C.ar    1  UNL1       -0.0225
     11 C         143.0592  142.1863  167.1820 C.ar    1  UNL1       -0.0042
     12 C         142.9422  141.9381  165.7073 C.ar    1  UNL1        0.0011
     13 C         142.9963  141.3026  169.6243 C.3     1  UNL1        0.0224
     14 C         142.9120  140.1555  170.5870 C.3     1  UNL1        0.0047
     15 C         143.1976  142.6981  170.1363 C.3     1  UNL1        0.0047
     16 C         143.8713  139.5359  160.1671 C.3     1  UNL1        0.1004
     17 N         143.8737  140.5107  159.0269 N.3     1  UNL1       -0.2646
     18 C         143.6560  140.0250  157.6246 C.3     1  UNL1        0.1049
     19 C         143.6583  140.9997  156.4845 C.3     1  UNL1        0.1595
     20 O         143.8785  142.4601  156.7468 O.3     1  UNL1       -0.3508
     21 C         144.0962  142.9458  158.1492 C.3     1  UNL1        0.1595
     22 C         144.0938  141.9711  159.2892 C.3     1  UNL1        0.1049
     23 C         139.8784  140.5495  163.4701 C.3     1  UNL1        0.1324
     24 C         139.2598  139.5661  164.4190 C.ar    1  UNL1        0.0005
     25 C         138.5385  140.0542  165.6402 C.ar    1  UNL1       -0.0001
     26 C         137.9200  139.0708  166.5891 C.ar    1  UNL1        0.0294
     27 C         138.0227  137.5993  166.3166 C.ar    1  UNL1        0.1401
     28 F         137.4041  136.6158  167.2655 F       1  UNL1       -0.2042
     29 C         138.7440  137.1113  165.0953 C.ar    1  UNL1        0.0294
     30 C         139.3626  138.0946  164.1465 C.ar    1  UNL1       -0.0001
@<TRIPOS>BOND
     1     1     2    1
     2     2     3   ar
     3     3    16    1
     4    16    17    1
     5    17    18    1
     6    18    19    1
     7    19    20    1
     8    20    21    1
     9    21    22    1
    10     3     4   ar
    11     4     5   ar
    12     5     7    1
    13     7     8   ar
    14     8     9   ar
    15     9    10   ar
    16    10    13    1
    17    13    14    1
    18    13    15    1
    19    10    11   ar
    20    11    12   ar
    21     5     6   ar
    22     6    23    1
    23    23    24    1
    24    24    25   ar
    25    25    26   ar
    26    26    27   ar
    27    27    28    1
    28    27    29   ar
    29    29    30   ar
    30     6     2   ar
    31    30    24   ar
    32    22    17    1
    33    12     7   ar
@<TRIPOS>MOLECULE
*****
 30 33 0 0 0
SMALL
GASTEIGER

@<TRIPOS>ATOM
      1 C         138.0845  143.2050  161.1621 C.3     1  UNL1        0.0497
      2 C         139.1783  143.5056  162.1435 C.ar    1  UNL1        0.0351
      3 C         140.2055  144.5910  162.0138 C.ar    1  UNL1        0.0070
      4 C         141.0990  144.5298  163.2170 C.ar    1  UNL1        0.0154
      5 C         140.6242  143.4065  164.0904 C.ar    1  UNL1        0.0596
      6 N         139.4371  142.7735  163.4269 N.ar    1  UNL1       -0.3267
      7 C         141.2300  142.9895  165.3977 C.ar    1  UNL1        0.0158
      8 C         142.6921  142.6644  165.4770 C.ar    1  UNL1        0.0011
      9 C         143.2979  142.2473  166.7843 C.ar    1  UNL1       -0.0042
     10 C         142.4416  142.1554  168.0123 C.ar    1  UNL1       -0.0225
     11 C         140.9794  142.4805  167.9331 C.ar    1  UNL1       -0.0042
     12 C         140.3736  142.8975  166.6258 C.ar    1  UNL1        0.0011
     13 C         143.0474  141.7383  169.3196 C.3     1  UNL1        0.0224
     14 C         142.5883  140.4779  169.9908 C.3     1  UNL1        0.0047
     15 C         144.1123  142.5817  169.9557 C.3     1  UNL1        0.0047
     16 C         140.3191  145.5664  160.8799 C.3     1  UNL1        0.1004
     17 N         140.9975  145.1593  159.6055 N.3     1  UNL1       -0.2646
     18 C         140.5981  145.7951  158.3070 C.3     1  UNL1        0.1049
     19 C         141.2764  145.3880  157.0326 C.3     1  UNL1        0.1595
     20 O         142.3542  144.3451  157.0568 O.3     1  UNL1       -0.3508
     21 C         142.7537  143.7092  158.3553 C.3     1  UNL1        0.1595
     22 C         142.0753  144.1163  159.6296 C.3     1  UNL1        0.1049
     23 C         138.6474  141.6123  163.9542 C.3     1  UNL1        0.1324
     24 C         139.3013  140.2720  164.1154 C.ar    1  UNL1        0.0005
     25 C         138.7562  139.2858  165.1055 C.ar    1  UNL1       -0.0001
     26 C         139.4100  137.9455  165.2667 C.ar    1  UNL1        0.0294
     27 C         140.6090  137.5914  164.4378 C.ar    1  UNL1        0.1401
     28 F         141.2630  136.2511  164.5990 F       1  UNL1       -0.2042
     29 C         141.1541  138.5777  163.4477 C.ar    1  UNL1        0.0294
     30 C         140.5003  139.9180  163.2865 C.ar    1  UNL1       -0.0001
@<TRIPOS>BOND
     1     1     2    1
     2     2     3   ar
     3     3    16    1
     4    16    17    1
     5    17    18    1
     6    18    19    1
     7    19    20    1
     8    20    21    1
     9    21    22    1
    10     3     4   ar
    11     4     5   ar
    12     5     7    1
    13     7     8   ar
    14     8     9   ar
    15     9    10   ar
    16    10    13    1
    17    13    14    1
    18    13    15    1
    19    10    11   ar
    20    11    12   ar
    21     5     6   ar
    22     6    23    1
    23    23    24    1
    24    24    25   ar
    25    25    26   ar
    26    26    27   ar
    27    27    28    1
    28    27    29   ar
    29    29    30   ar
    30     6     2   ar
    31    30    24   ar
    32    22    17    1
    33    12     7   ar
@<TRIPOS>MOLECULE
*****
 30 33 0 0 0
SMALL
GASTEIGER

@<TRIPOS>ATOM
      1 C         140.1487  141.3792  159.8296 C.3     1  UNL1        0.0497
      2 C         141.1531  141.2311  160.9338 C.ar    1  UNL1        0.0351
      3 C         142.6430  141.1758  160.7690 C.ar    1  UNL1        0.0070
      4 C         143.2546  141.0229  162.1301 C.ar    1  UNL1        0.0154
      5 C         142.1428  140.9838  163.1362 C.ar    1  UNL1        0.0596
      6 N         140.8439  141.1125  162.3968 N.ar    1  UNL1       -0.3267
      7 C         142.3018  140.8410  164.6208 C.ar    1  UNL1        0.0158
      8 C         142.1987  142.0478  165.5057 C.ar    1  UNL1        0.0011
      9 C         142.3577  141.9050  166.9903 C.ar    1  UNL1       -0.0042
     10 C         142.6198  140.5555  167.5902 C.ar    1  UNL1       -0.0225
     11 C         142.7229  139.3486  166.7054 C.ar    1  UNL1       -0.0042
     12 C         142.5639  139.4914  165.2207 C.ar    1  UNL1        0.0011
     13 C         142.7788  140.4127  169.0749 C.3     1  UNL1        0.0224
     14 C         142.4233  139.1194  169.7463 C.3     1  UNL1        0.0047
     15 C         143.2933  141.5633  169.8882 C.3     1  UNL1        0.0047
     16 C         143.3900  141.2588  159.4709 C.3     1  UNL1        0.1004
     17 N         143.3705  140.0997  158.5189 N.3     1  UNL1       -0.2646
     18 C         143.9471  140.2500  157.1424 C.3     1  UNL1        0.1049
     19 C         143.9276  139.0910  156.1904 C.3     1  UNL1        0.1595
     20 O         143.3314  137.7817  156.6150 O.3     1  UNL1       -0.3508
     21 C         142.7548  137.6314  157.9915 C.3     1  UNL1        0.1595
     22 C         142.7743  138.7904  158.9435 C.3     1  UNL1        0.1049
     23 C         139.4761  141.1210  163.0124 C.3     1  UNL1        0.1324
     24 C         139.0730  140.0297  163.9593 C.ar    1  UNL1        0.0005
     25 C         139.2671  138.5930  163.5743 C.ar    1  UNL1       -0.0001
     26 C         138.8640  137.5018  164.5212 C.ar    1  UNL1        0.0294
     27 C         138.2668  137.8472  165.8531 C.ar    1  UNL1        0.1401
     28 F         137.8636  136.7559  166.8001 F       1  UNL1       -0.2042
     29 C         138.0727  139.2839  166.2381 C.ar    1  UNL1        0.0294
     30 C         138.4758  140.3752  165.2912 C.ar    1  UNL1       -0.0001
@<TRIPOS>BOND
     1     1     2    1
     2     2     3   ar
     3     3    16    1
     4    16    17    1
     5    17    18    1
     6    18    19    1
     7    19    20    1
     8    20    21    1
     9    21    22    1
    10     3     4   ar
    11     4     5   ar
    12     5     7    1
    13     7     8   ar
    14     8     9   ar
    15     9    10   ar
    16    10    13    1
    17    13    14    1
    18    13    15    1
    19    10    11   ar
    20    11    12   ar
    21     5     6   ar
    22     6    23    1
    23    23    24    1
    24    24    25   ar
    25    25    26   ar
    26    26    27   ar
    27    27    28    1
    28    27    29   ar
    29    29    30   ar
    30     6     2   ar
    31    30    24   ar
    32    22    17    1
    33    12     7   ar
@<TRIPOS>MOLECULE
*****
 30 33 0 0 0
SMALL
GASTEIGER

@<TRIPOS>ATOM
      1 C         140.2944  138.4948  159.6161 C.3     1  UNL1        0.0497
      2 C         139.6436  139.0403  160.8525 C.ar    1  UNL1        0.0351
      3 C         138.3634  139.8203  160.9042 C.ar    1  UNL1        0.0070
      4 C         138.0873  140.1636  162.3380 C.ar    1  UNL1        0.0154
      5 C         139.1968  139.5958  163.1726 C.ar    1  UNL1        0.0596
      6 N         140.1587  138.9015  162.2544 N.ar    1  UNL1       -0.3267
      7 C         139.3225  139.7033  164.6634 C.ar    1  UNL1        0.0158
      8 C         140.3732  140.5883  165.2656 C.ar    1  UNL1        0.0011
      9 C         140.4988  140.6959  166.7565 C.ar    1  UNL1       -0.0042
     10 C         139.5738  139.9184  167.6451 C.ar    1  UNL1       -0.0225
     11 C         138.5231  139.0334  167.0429 C.ar    1  UNL1       -0.0042
     12 C         138.3974  138.9258  165.5521 C.ar    1  UNL1        0.0011
     13 C         139.6995  140.0260  169.1359 C.3     1  UNL1        0.0224
     14 C         141.0455  139.9022  169.7860 C.3     1  UNL1        0.0047
     15 C         138.4790  140.2573  169.9767 C.3     1  UNL1        0.0047
     16 C         137.5093  140.1917  159.7284 C.3     1  UNL1        0.1004
     17 N         138.0032  141.1966  158.7302 N.3     1  UNL1       -0.2646
     18 C         137.6654  141.0389  157.2773 C.3     1  UNL1        0.1049
     19 C         138.1593  142.0437  156.2792 C.3     1  UNL1        0.1595
     20 O         138.9910  143.2063  156.7340 O.3     1  UNL1       -0.3508
     21 C         139.3287  143.3640  158.1869 C.3     1  UNL1        0.1595
     22 C         138.8348  142.3591  159.1850 C.3     1  UNL1        0.1049
     23 C         141.4151  138.1930  162.6660 C.3     1  UNL1        0.1324
     24 C         142.6488  138.9817  162.9912 C.ar    1  UNL1        0.0005
     25 C         143.3576  138.7619  164.2948 C.ar    1  UNL1       -0.0001
     26 C         144.5914  139.5507  164.6200 C.ar    1  UNL1        0.0294
     27 C         145.1163  140.5592  163.6416 C.ar    1  UNL1        0.1401
     28 F         146.3501  141.3481  163.9668 F       1  UNL1       -0.2042
     29 C         144.4075  140.7790  162.3380 C.ar    1  UNL1        0.0294
     30 C         143.1738  139.9903  162.0128 C.ar    1  UNL1       -0.0001
@<TRIPOS>BOND
     1     1     2    1
     2     2     3   ar
     3     3    16    1
     4    16    17    1
     5    17    18    1
     6    18    19    1
     7    19    20    1
     8    20    21    1
     9    21    22    1
    10     3     4   ar
    11     4     5   ar
    12     5     7    1
    13     7     8   ar
    14     8     9   ar
    15     9    10   ar
    16    10    13    1
    17    13    14    1
    18    13    15    1
    19    10    11   ar
    20    11    12   ar
    21     5     6   ar
    22     6    23    1
    23    23    24    1
    24    24    25   ar
    25    25    26   ar
    26    26    27   ar
    27    27    28    1
    28    27    29   ar
    29    29    30   ar
    30     6     2   ar
    31    30    24   ar
    32    22    17    1
    33    12     7   ar
@<TRIPOS>MOLECULE
*****
 30 33 0 0 0
SMALL
GASTEIGER

@<TRIPOS>ATOM
      1 C         142.3907  138.1838  158.0928 C.3     1  UNL1        0.0497
      2 C         141.2781  138.5139  159.0431 C.ar    1  UNL1        0.0351
      3 C         139.9155  139.0146  158.6656 C.ar    1  UNL1        0.0070
      4 C         139.1281  139.2114  159.9271 C.ar    1  UNL1        0.0154
      5 C         140.0040  138.8323  161.0842 C.ar    1  UNL1        0.0596
      6 N         141.3329  138.4012  160.5379 N.ar    1  UNL1       -0.3267
      7 C         139.6188  138.8764  162.5332 C.ar    1  UNL1        0.0158
      8 C         139.4341  140.1969  163.2202 C.ar    1  UNL1        0.0011
      9 C         139.0489  140.2411  164.6692 C.ar    1  UNL1       -0.0042
     10 C         138.8484  138.9648  165.4312 C.ar    1  UNL1       -0.0225
     11 C         139.0332  137.6442  164.7443 C.ar    1  UNL1       -0.0042
     12 C         139.4184  137.6000  163.2953 C.ar    1  UNL1        0.0011
     13 C         138.4632  139.0090  166.8802 C.3     1  UNL1        0.0224
     14 C         137.2774  138.2289  167.3652 C.3     1  UNL1        0.0047
     15 C         139.2639  139.8332  167.8444 C.3     1  UNL1        0.0047
     16 C         139.4263  139.2732  157.2715 C.3     1  UNL1        0.1004
     17 N         138.8742  140.6198  156.9080 N.3     1  UNL1       -0.2646
     18 C         137.4194  140.7688  156.5746 C.3     1  UNL1        0.1049
     19 C         136.8674  142.1153  156.2111 C.3     1  UNL1        0.1595
     20 O         137.7702  143.3128  156.1811 O.3     1  UNL1       -0.3508
     21 C         139.2250  143.1638  156.5145 C.3     1  UNL1        0.1595
     22 C         139.7770  141.8173  156.8780 C.3     1  UNL1        0.1049
     23 C         142.5098  137.9386  161.3447 C.3     1  UNL1        0.1324
     24 C         143.3507  138.9364  162.0845 C.ar    1  UNL1        0.0005
     25 C         143.9845  140.0776  161.3456 C.ar    1  UNL1       -0.0001
     26 C         144.8254  141.0754  162.0854 C.ar    1  UNL1        0.0294
     27 C         145.0325  140.9319  163.5641 C.ar    1  UNL1        0.1401
     28 F         145.8735  141.9297  164.3039 F       1  UNL1       -0.2042
     29 C         144.3987  139.7906  164.3030 C.ar    1  UNL1        0.0294
     30 C         143.5578  138.7929  163.5632 C.ar    1  UNL1       -0.0001
@<TRIPOS>BOND
     1     1     2    1
     2     2     3   ar
     3     3    16    1
     4    16    17    1
     5    17    18    1
     6    18    19    1
     7    19    20    1
     8    20    21    1
     9    21    22    1
    10     3     4   ar
    11     4     5   ar
    12     5     7    1
    13     7     8   ar
    14     8     9   ar
    15     9    10   ar
    16    10    13    1
    17    13    14    1
    18    13    15    1
    19    10    11   ar
    20    11    12   ar
    21     5     6   ar
    22     6    23    1
    23    23    24    1
    24    24    25   ar
    25    25    26   ar
    26    26    27   ar
    27    27    28    1
    28    27    29   ar
    29    29    30   ar
    30     6     2   ar
    31    30    24   ar
    32    22    17    1
    33    12     7   ar
@<TRIPOS>MOLECULE
*****
 30 33 0 0 0
SMALL
GASTEIGER

@<TRIPOS>ATOM
      1 C         137.5842  138.0056  166.9563 C.3     1  UNL1        0.0497
      2 C         138.7117  138.8638  166.4641 C.ar    1  UNL1        0.0351
      3 C         139.4627  139.8811  167.2710 C.ar    1  UNL1        0.0070
      4 C         140.5013  140.5013  166.3841 C.ar    1  UNL1        0.0154
      5 C         140.3922  139.8674  165.0291 C.ar    1  UNL1        0.0596
      6 N         139.2862  138.8553  165.0785 N.ar    1  UNL1       -0.3267
      7 C         141.2403  140.1890  163.8344 C.ar    1  UNL1        0.0158
      8 C         142.4009  139.3077  163.4793 C.ar    1  UNL1        0.0011
      9 C         143.2490  139.6293  162.2846 C.ar    1  UNL1       -0.0042
     10 C         142.9364  140.8323  161.4450 C.ar    1  UNL1       -0.0225
     11 C         141.7757  141.7136  161.8000 C.ar    1  UNL1       -0.0042
     12 C         140.9277  141.3920  162.9947 C.ar    1  UNL1        0.0011
     13 C         143.7844  141.1539  160.2503 C.3     1  UNL1        0.0224
     14 C         144.5722  142.4297  160.2113 C.3     1  UNL1        0.0047
     15 C         143.8447  140.1996  159.0945 C.3     1  UNL1        0.0047
     16 C         139.2180  140.2188  168.7119 C.3     1  UNL1        0.1004
     17 N         140.1822  141.0994  169.4500 N.3     1  UNL1       -0.2646
     18 C         141.1659  140.4964  170.4085 C.3     1  UNL1        0.1049
     19 C         142.1301  141.3771  171.1466 C.3     1  UNL1        0.1595
     20 O         142.1106  142.8607  170.9262 O.3     1  UNL1       -0.3508
     21 C         141.1269  143.4636  169.9677 C.3     1  UNL1        0.1595
     22 C         140.1627  142.5830  169.2296 C.3     1  UNL1        0.1049
     23 C         138.8340  137.9872  163.9419 C.3     1  UNL1        0.1324
     24 C         138.7376  138.5549  162.5569 C.ar    1  UNL1        0.0005
     25 C         137.7872  139.6799  162.2719 C.ar    1  UNL1       -0.0001
     26 C         137.6907  140.2476  160.8869 C.ar    1  UNL1        0.0294
     27 C         138.5447  139.6904  159.7868 C.ar    1  UNL1        0.1401
     28 F         138.4483  140.2581  158.4017 F       1  UNL1       -0.2042
     29 C         139.4952  138.5654  160.0717 C.ar    1  UNL1        0.0294
     30 C         139.5916  137.9977  161.4568 C.ar    1  UNL1       -0.0001
@<TRIPOS>BOND
     1     1     2    1
     2     2     3   ar
     3     3    16    1
     4    16    17    1
     5    17    18    1
     6    18    19    1
     7    19    20    1
     8    20    21    1
     9    21    22    1
    10     3     4   ar
    11     4     5   ar
    12     5     7    1
    13     7     8   ar
    14     8     9   ar
    15     9    10   ar
    16    10    13    1
    17    13    14    1
    18    13    15    1
    19    10    11   ar
    20    11    12   ar
    21     5     6   ar
    22     6    23    1
    23    23    24    1
    24    24    25   ar
    25    25    26   ar
    26    26    27   ar
    27    27    28    1
    28    27    29   ar
    29    29    30   ar
    30     6     2   ar
    31    30    24   ar
    32    22    17    1
    33    12     7   ar
@<TRIPOS>MOLECULE
*****
 30 33 0 0 0
SMALL
GASTEIGER

@<TRIPOS>ATOM
      1 C         142.1742  142.3539  158.6247 C.3     1  UNL1        0.0497
      2 C         141.4072  141.3946  159.4858 C.ar    1  UNL1        0.0351
      3 C         140.7185  140.1468  159.0181 C.ar    1  UNL1        0.0070
      4 C         140.0799  139.4957  160.2091 C.ar    1  UNL1        0.0154
      5 C         140.3739  140.3411  161.4128 C.ar    1  UNL1        0.0596
      6 N         141.1943  141.5147  160.9657 N.ar    1  UNL1       -0.3267
      7 C         139.9263  140.0619  162.8169 C.ar    1  UNL1        0.0158
      8 C         140.8633  139.4045  163.7862 C.ar    1  UNL1        0.0011
      9 C         140.4157  139.1253  165.1903 C.ar    1  UNL1       -0.0042
     10 C         139.0309  139.5036  165.6252 C.ar    1  UNL1       -0.0225
     11 C         138.0937  140.1610  164.6559 C.ar    1  UNL1       -0.0042
     12 C         138.5414  140.4402  163.2518 C.ar    1  UNL1        0.0011
     13 C         138.5832  139.2244  167.0293 C.3     1  UNL1        0.0224
     14 C         139.2887  139.8714  168.1841 C.3     1  UNL1        0.0047
     15 C         137.4300  138.2982  167.2787 C.3     1  UNL1        0.0047
     16 C         140.6759  139.6393  157.6073 C.3     1  UNL1        0.1004
     17 N         141.8291  138.8528  157.0580 N.3     1  UNL1       -0.2646
     18 C         141.9502  137.3886  157.3606 C.3     1  UNL1        0.1049
     19 C         143.1034  136.6022  156.8113 C.3     1  UNL1        0.1595
     20 O         144.1354  137.2799  155.9594 O.3     1  UNL1       -0.3508
     21 C         144.0142  138.7441  155.6568 C.3     1  UNL1        0.1595
     22 C         142.8611  139.5305  156.2061 C.3     1  UNL1        0.1049
     23 C         141.7109  142.6151  161.8444 C.3     1  UNL1        0.1324
     24 C         140.7990  143.2728  162.8373 C.ar    1  UNL1        0.0005
     25 C         139.6409  144.0980  162.3601 C.ar    1  UNL1       -0.0001
     26 C         138.7290  144.7556  163.3531 C.ar    1  UNL1        0.0294
     27 C         138.9752  144.5880  164.8232 C.ar    1  UNL1        0.1401
     28 F         138.0633  145.2457  165.8162 F       1  UNL1       -0.2042
     29 C         140.1334  143.7628  165.3004 C.ar    1  UNL1        0.0294
     30 C         141.0453  143.1052  164.3075 C.ar    1  UNL1       -0.0001
@<TRIPOS>BOND
     1     1     2    1
     2     2     3   ar
     3     3    16    1
     4    16    17    1
     5    17    18    1
     6    18    19    1
     7    19    20    1
     8    20    21    1
     9    21    22    1
    10     3     4   ar
    11     4     5   ar
    12     5     7    1
    13     7     8   ar
    14     8     9   ar
    15     9    10   ar
    16    10    13    1
    17    13    14    1
    18    13    15    1
    19    10    11   ar
    20    11    12   ar
    21     5     6   ar
    22     6    23    1
    23    23    24    1
    24    24    25   ar
    25    25    26   ar
    26    26    27   ar
    27    27    28    1
    28    27    29   ar
    29    29    30   ar
    30     6     2   ar
    31    30    24   ar
    32    22    17    1
    33    12     7   ar
