@<TRIPOS>MOLECULE
*****
 34 37 0 0 0
SMALL
GASTEIGER

@<TRIPOS>ATOM
      1 C         139.1467  138.6521  162.7023 C.ar    1  UNL1        0.0505
      2 C         139.3255  137.5247  163.6753 C.ar    1  UNL1        0.0148
      3 C         139.1596  137.7697  165.1458 C.ar    1  UNL1        0.0060
      4 C         138.8149  139.1421  165.6434 C.ar    1  UNL1        0.0553
      5 C         138.6361  140.2696  164.6703 C.ar    1  UNL1        0.0060
      6 C         138.8020  140.0246  163.1997 C.ar    1  UNL1        0.0148
      7 C         138.6490  139.3871  167.1138 C.ar    1  UNL1        0.2512
      8 N         137.6728  138.6949  168.0184 N.ar    1  UNL1       -0.1058
      9 N         137.8506  139.2473  169.4015 N.ar    1  UNL1       -0.0923
     10 C         138.9366  140.2809  169.3519 C.ar    1  UNL1        0.3086
     11 O         139.4299  140.3672  167.9380 O.2     1  UNL1       -0.4048
     12 N         139.4406  141.0866  170.5124 N.pl3   1  UNL1       -0.2871
     13 H         138.9424  141.0916  171.3616 H       1  UNL1        0.1512
     14 C         140.7037  141.8846  170.3791 C.3     1  UNL1        0.0925
     15 C         141.9740  141.3880  171.0035 C.3     1  UNL1        0.0386
     16 C         143.0862  140.8773  170.1363 C.3     1  UNL1        0.0739
     17 N         142.9135  140.8270  168.6471 N.3     1  UNL1       -0.2704
     18 C         142.6497  139.4685  168.0681 C.3     1  UNL1        0.0748
     19 C         142.4346  139.0894  166.6328 C.3     1  UNL1        0.0494
     20 C         142.4302  139.9748  165.4222 C.3     1  UNL1        0.1437
     21 O         142.6398  141.4583  165.3476 O.3     1  UNL1       -0.3522
     22 C         142.9056  142.4226  166.4654 C.3     1  UNL1        0.1594
     23 C         143.0273  142.1415  167.9338 C.3     1  UNL1        0.1046
     24 O         141.7400  139.3257  161.3525 O.2     1  UNL1       -0.2697
     25 C         140.6093  138.7439  160.5569 C.2     1  UNL1        0.2517
     26 N         139.3127  138.4071  161.2317 N.am    1  UNL1       -0.2803
     27 H         138.5706  138.0252  160.7095 H       1  UNL1        0.1552
     28 C         140.7752  138.4989  159.0863 C.ar    1  UNL1        0.0811
     29 C         139.6291  138.7464  158.1508 C.ar    1  UNL1        0.0068
     30 C         139.7950  138.5014  156.6803 C.ar    1  UNL1        0.0003
     31 C         141.1071  138.0089  156.1454 C.ar    1  UNL1        0.0023
     32 C         142.2532  137.7615  157.0809 C.ar    1  UNL1        0.0298
     33 C         142.0872  138.0065  158.5514 C.ar    1  UNL1        0.1445
     34 F         143.2332  137.7591  159.4870 F       1  UNL1       -0.2040
@<TRIPOS>BOND
     1    24    25    2
     2    25    26   am
     3    26     1    1
     4     1     2   ar
     5     2     3   ar
     6     3     4   ar
     7     4     7    1
     8     7     8   ar
     9     8     9   ar
    10     9    10   ar
    11    10    12    1
    12    12    14    1
    13    14    15    1
    14    15    16    1
    15    16    17    1
    16    17    18    1
    17    18    19    1
    18    19    20    1
    19    20    21    1
    20    21    22    1
    21    22    23    1
    22    10    11   ar
    23     4     5   ar
    24     5     6   ar
    25    25    28    1
    26    28    29   ar
    27    29    30   ar
    28    30    31   ar
    29    31    32   ar
    30    32    33   ar
    31    33    34    1
    32     6     1   ar
    33    33    28   ar
    34    11     7   ar
    35    23    17    1
    36    26    27    1
    37    12    13    1
@<TRIPOS>MOLECULE
*****
 34 37 0 0 0
SMALL
GASTEIGER

@<TRIPOS>ATOM
      1 C         140.0132  144.2431  159.7783 C.ar    1  UNL1        0.0505
      2 C         140.3772  142.7881  159.7721 C.ar    1  UNL1        0.0148
      3 C         140.7035  142.0911  161.0596 C.ar    1  UNL1        0.0060
      4 C         140.6657  142.8491  162.3534 C.ar    1  UNL1        0.0553
      5 C         140.3017  144.3042  162.3596 C.ar    1  UNL1        0.0060
      6 C         139.9754  145.0013  161.0721 C.ar    1  UNL1        0.0148
      7 C         140.9920  142.1521  163.6408 C.ar    1  UNL1        0.2512
      8 N         140.7791  142.7025  165.0200 N.ar    1  UNL1       -0.1058
      9 N         141.2440  141.6728  166.0067 N.ar    1  UNL1       -0.0923
     10 C         141.7442  140.4861  165.2376 C.ar    1  UNL1        0.3086
     11 O         141.5884  140.7824  163.7754 O.2     1  UNL1       -0.4048
     12 N         142.3021  139.2247  165.8271 N.pl3   1  UNL1       -0.2871
     13 H         141.7264  138.6380  166.3690 H       1  UNL1        0.1512
     14 C         143.7371  138.8574  165.5911 C.3     1  UNL1        0.0925
     15 C         144.3912  139.1905  164.2829 C.3     1  UNL1        0.0386
     16 C         145.3484  140.3420  164.1947 C.3     1  UNL1        0.0739
     17 N         144.8685  141.6815  163.7199 N.3     1  UNL1       -0.2704
     18 C         144.5889  142.6908  164.7939 C.3     1  UNL1        0.0748
     19 C         144.1035  144.1025  164.6471 C.3     1  UNL1        0.0494
     20 C         143.7778  144.8535  163.3903 C.3     1  UNL1        0.1437
     21 O         143.8571  144.3785  161.9697 O.3     1  UNL1       -0.3522
     22 C         144.2816  143.0350  161.4552 C.3     1  UNL1        0.1594
     23 C         144.7318  141.8348  162.2342 C.3     1  UNL1        0.1046
     24 O         142.1243  145.8295  158.3546 O.2     1  UNL1       -0.2697
     25 C         140.7425  145.7334  157.7789 C.2     1  UNL1        0.2517
     26 N         139.6869  144.9402  158.4908 N.am    1  UNL1       -0.2803
     27 H         138.7800  144.8770  158.1130 H       1  UNL1        0.1552
     28 C         140.4162  146.4304  156.4914 C.ar    1  UNL1        0.0811
     29 C         141.0954  146.0144  155.2204 C.ar    1  UNL1        0.0068
     30 C         140.7691  146.7114  153.9328 C.ar    1  UNL1        0.0003
     31 C         139.7637  147.8244  153.9164 C.ar    1  UNL1        0.0023
     32 C         139.0844  148.2404  155.1875 C.ar    1  UNL1        0.0298
     33 C         139.4107  147.5434  156.4750 C.ar    1  UNL1        0.1445
     34 F         138.7316  147.9593  157.7461 F       1  UNL1       -0.2040
@<TRIPOS>BOND
     1    24    25    2
     2    25    26   am
     3    26     1    1
     4     1     2   ar
     5     2     3   ar
     6     3     4   ar
     7     4     7    1
     8     7     8   ar
     9     8     9   ar
    10     9    10   ar
    11    10    12    1
    12    12    14    1
    13    14    15    1
    14    15    16    1
    15    16    17    1
    16    17    18    1
    17    18    19    1
    18    19    20    1
    19    20    21    1
    20    21    22    1
    21    22    23    1
    22    10    11   ar
    23     4     5   ar
    24     5     6   ar
    25    25    28    1
    26    28    29   ar
    27    29    30   ar
    28    30    31   ar
    29    31    32   ar
    30    32    33   ar
    31    33    34    1
    32     6     1   ar
    33    33    28   ar
    34    11     7   ar
    35    23    17    1
    36    26    27    1
    37    12    13    1
@<TRIPOS>MOLECULE
*****
 34 37 0 0 0
SMALL
GASTEIGER

@<TRIPOS>ATOM
      1 C         142.9488  138.6116  157.6289 C.ar    1  UNL1        0.0505
      2 C         142.9763  139.7393  156.6402 C.ar    1  UNL1        0.0148
      3 C         142.6215  141.1294  157.0781 C.ar    1  UNL1        0.0060
      4 C         142.2391  141.3919  158.5045 C.ar    1  UNL1        0.0553
      5 C         142.2115  140.2641  159.4932 C.ar    1  UNL1        0.0060
      6 C         142.5664  138.8740  159.0554 C.ar    1  UNL1        0.0148
      7 C         141.8843  142.7819  158.9423 C.ar    1  UNL1        0.2512
      8 N         142.6082  144.0387  158.5595 N.ar    1  UNL1       -0.1058
      9 N         141.9145  145.1928  159.2204 N.ar    1  UNL1       -0.0923
     10 C         140.7619  144.6493  160.0118 C.ar    1  UNL1        0.3086
     11 O         140.7433  143.1594  159.8399 O.2     1  UNL1       -0.4048
     12 N         139.7974  145.4546  160.8311 N.pl3   1  UNL1       -0.2871
     13 H         138.9235  145.7076  160.4549 H       1  UNL1        0.1512
     14 C         140.1645  145.8743  162.2236 C.3     1  UNL1        0.0925
     15 C         140.9796  144.9620  163.0916 C.3     1  UNL1        0.0386
     16 C         142.4381  145.2379  163.3080 C.3     1  UNL1        0.0739
     17 N         143.4323  144.1171  163.2347 N.3     1  UNL1       -0.2704
     18 C         143.9195  143.5922  164.5528 C.3     1  UNL1        0.0748
     19 C         144.9026  142.4899  164.8148 C.3     1  UNL1        0.0494
     20 C         145.6413  141.6405  163.8236 C.3     1  UNL1        0.1437
     21 O         145.5794  141.6834  162.3254 O.3     1  UNL1       -0.3522
     22 C         144.7635  142.5863  161.4486 C.3     1  UNL1        0.1594
     23 C         143.8079  143.6695  161.8533 C.3     1  UNL1        0.1046
     24 O         140.8400  136.8195  156.4705 O.2     1  UNL1       -0.2697
     25 C         142.2492  136.3255  156.6119 C.2     1  UNL1        0.2517
     26 N         143.3036  137.2215  157.1910 N.am    1  UNL1       -0.2803
     27 H         144.2285  136.8973  157.2838 H       1  UNL1        0.1552
     28 C         142.6041  134.9354  156.1740 C.ar    1  UNL1        0.0811
     29 C         142.3622  134.5111  154.7558 C.ar    1  UNL1        0.0068
     30 C         142.7170  133.1210  154.3179 C.ar    1  UNL1        0.0003
     31 C         143.3137  132.1552  155.2984 C.ar    1  UNL1        0.0023
     32 C         143.5557  132.5795  156.7166 C.ar    1  UNL1        0.0298
     33 C         143.2008  133.9696  157.1545 C.ar    1  UNL1        0.1445
     34 F         143.4427  134.3940  158.5726 F       1  UNL1       -0.2040
@<TRIPOS>BOND
     1    24    25    2
     2    25    26   am
     3    26     1    1
     4     1     2   ar
     5     2     3   ar
     6     3     4   ar
     7     4     7    1
     8     7     8   ar
     9     8     9   ar
    10     9    10   ar
    11    10    12    1
    12    12    14    1
    13    14    15    1
    14    15    16    1
    15    16    17    1
    16    17    18    1
    17    18    19    1
    18    19    20    1
    19    20    21    1
    20    21    22    1
    21    22    23    1
    22    10    11   ar
    23     4     5   ar
    24     5     6   ar
    25    25    28    1
    26    28    29   ar
    27    29    30   ar
    28    30    31   ar
    29    31    32   ar
    30    32    33   ar
    31    33    34    1
    32     6     1   ar
    33    33    28   ar
    34    11     7   ar
    35    23    17    1
    36    26    27    1
    37    12    13    1
@<TRIPOS>MOLECULE
*****
 34 37 0 0 0
SMALL
GASTEIGER

@<TRIPOS>ATOM
      1 C         139.3699  138.3457  162.2338 C.ar    1  UNL1        0.0505
      2 C         138.4931  139.4841  162.6636 C.ar    1  UNL1        0.0148
      3 C         138.1896  139.6893  164.1182 C.ar    1  UNL1        0.0060
      4 C         138.7630  138.7561  165.1430 C.ar    1  UNL1        0.0553
      5 C         139.6399  137.6175  164.7130 C.ar    1  UNL1        0.0060
      6 C         139.9434  137.4123  163.2585 C.ar    1  UNL1        0.0148
      7 C         138.4596  138.9613  166.5975 C.ar    1  UNL1        0.2512
      8 N         137.3461  138.3132  167.3659 N.ar    1  UNL1       -0.1058
      9 N         137.4147  138.8020  168.7823 N.ar    1  UNL1       -0.0923
     10 C         138.5705  139.7521  168.8894 C.ar    1  UNL1        0.3086
     11 O         139.2163  139.8505  167.5391 O.2     1  UNL1       -0.4048
     12 N         139.0044  140.4765  170.1292 N.pl3   1  UNL1       -0.2871
     13 H         138.4022  141.1293  170.5541 H       1  UNL1        0.1512
     14 C         140.3557  140.2063  170.7215 C.3     1  UNL1        0.0925
     15 C         141.1990  141.3441  171.2160 C.3     1  UNL1        0.0386
     16 C         141.8266  142.2927  170.2381 C.3     1  UNL1        0.0739
     17 N         141.6754  142.0592  168.7641 N.3     1  UNL1       -0.2704
     18 C         140.6612  142.9192  168.0697 C.3     1  UNL1        0.0748
     19 C         140.2795  142.9290  166.6191 C.3     1  UNL1        0.0494
     20 C         140.8177  142.0814  165.5047 C.3     1  UNL1        0.1437
     21 O         141.8705  141.0147  165.5655 O.3     1  UNL1       -0.3522
     22 C         142.6451  140.5320  166.7559 C.3     1  UNL1        0.1594
     23 C         142.5582  140.9970  168.1794 C.3     1  UNL1        0.1046
     24 O         141.8569  139.5242  161.0394 O.2     1  UNL1       -0.2697
     25 C         140.9168  138.7297  160.1820 C.2     1  UNL1        0.2517
     26 N         139.6733  138.1404  160.7792 N.am    1  UNL1       -0.2803
     27 H         139.0564  137.6190  160.2164 H       1  UNL1        0.1552
     28 C         141.2203  138.5245  158.7274 C.ar    1  UNL1        0.0811
     29 C         142.5319  137.9270  158.3119 C.ar    1  UNL1        0.0068
     30 C         142.8353  137.7218  156.8573 C.ar    1  UNL1        0.0003
     31 C         141.8271  138.1141  155.8183 C.ar    1  UNL1        0.0023
     32 C         140.5155  138.7116  156.2337 C.ar    1  UNL1        0.0298
     33 C         140.2121  138.9168  157.6883 C.ar    1  UNL1        0.1445
     34 F         138.9005  139.5143  158.1039 F       1  UNL1       -0.2040
@<TRIPOS>BOND
     1    24    25    2
     2    25    26   am
     3    26     1    1
     4     1     2   ar
     5     2     3   ar
     6     3     4   ar
     7     4     7    1
     8     7     8   ar
     9     8     9   ar
    10     9    10   ar
    11    10    12    1
    12    12    14    1
    13    14    15    1
    14    15    16    1
    15    16    17    1
    16    17    18    1
    17    18    19    1
    18    19    20    1
    19    20    21    1
    20    21    22    1
    21    22    23    1
    22    10    11   ar
    23     4     5   ar
    24     5     6   ar
    25    25    28    1
    26    28    29   ar
    27    29    30   ar
    28    30    31   ar
    29    31    32   ar
    30    32    33   ar
    31    33    34    1
    32     6     1   ar
    33    33    28   ar
    34    11     7   ar
    35    23    17    1
    36    26    27    1
    37    12    13    1
@<TRIPOS>MOLECULE
*****
 34 37 0 0 0
SMALL
GASTEIGER

@<TRIPOS>ATOM
      1 C         142.3644  138.4552  163.5761 C.ar    1  UNL1        0.0505
      2 C         141.2292  138.1203  162.6548 C.ar    1  UNL1        0.0148
      3 C         141.4451  138.1130  161.1704 C.ar    1  UNL1        0.0060
      4 C         142.7962  138.4407  160.6073 C.ar    1  UNL1        0.0553
      5 C         143.9315  138.7756  161.5288 C.ar    1  UNL1        0.0060
      6 C         143.7156  138.7829  163.0131 C.ar    1  UNL1        0.0148
      7 C         143.0121  138.4334  159.1231 C.ar    1  UNL1        0.2512
      8 N         143.8005  139.4426  158.3418 N.ar    1  UNL1       -0.1058
      9 N         143.7532  139.0486  156.8952 N.ar    1  UNL1       -0.0923
     10 C         142.9356  137.7960  156.7825 C.ar    1  UNL1        0.3086
     11 O         142.4777  137.4158  158.1593 O.2     1  UNL1       -0.4048
     12 N         142.6298  137.0539  155.5153 N.pl3   1  UNL1       -0.2871
     13 H         142.4397  137.5512  154.6872 H       1  UNL1        0.1512
     14 C         142.6137  135.5540  155.5098 C.3     1  UNL1        0.0925
     15 C         143.8182  134.7893  155.9732 C.3     1  UNL1        0.0386
     16 C         143.7254  133.9030  157.1797 C.3     1  UNL1        0.0739
     17 N         143.5778  132.4198  157.0112 N.3     1  UNL1       -0.2704
     18 C         144.5437  131.5771  157.7904 C.3     1  UNL1        0.0748
     19 C         144.6542  130.0818  157.8366 C.3     1  UNL1        0.0494
     20 C         143.8263  129.0601  157.1152 C.3     1  UNL1        0.1437
     21 O         142.6834  129.2811  156.1692 O.3     1  UNL1       -0.3522
     22 C         142.0861  130.5786  155.7111 C.3     1  UNL1        0.1594
     23 C         142.4842  131.9754  156.0859 C.3     1  UNL1        0.1046
     24 O         141.5496  140.9887  164.9610 O.2     1  UNL1       -0.2697
     25 C         141.7411  139.7292  165.7529 C.2     1  UNL1        0.2517
     26 N         142.1485  138.4625  165.0605 N.am    1  UNL1       -0.2803
     27 H         142.2742  137.6359  165.5802 H       1  UNL1        0.1552
     28 C         141.5252  139.7365  167.2373 C.ar    1  UNL1        0.0811
     29 C         142.6453  139.3569  168.1599 C.ar    1  UNL1        0.0068
     30 C         142.4294  139.3642  169.6443 C.ar    1  UNL1        0.0003
     31 C         141.0934  139.7510  170.2060 C.ar    1  UNL1        0.0023
     32 C         139.9733  140.1306  169.2833 C.ar    1  UNL1        0.0298
     33 C         140.1892  140.1233  167.7990 C.ar    1  UNL1        0.1445
     34 F         139.0692  140.5028  166.8762 F       1  UNL1       -0.2040
@<TRIPOS>BOND
     1    24    25    2
     2    25    26   am
     3    26     1    1
     4     1     2   ar
     5     2     3   ar
     6     3     4   ar
     7     4     7    1
     8     7     8   ar
     9     8     9   ar
    10     9    10   ar
    11    10    12    1
    12    12    14    1
    13    14    15    1
    14    15    16    1
    15    16    17    1
    16    17    18    1
    17    18    19    1
    18    19    20    1
    19    20    21    1
    20    21    22    1
    21    22    23    1
    22    10    11   ar
    23     4     5   ar
    24     5     6   ar
    25    25    28    1
    26    28    29   ar
    27    29    30   ar
    28    30    31   ar
    29    31    32   ar
    30    32    33   ar
    31    33    34    1
    32     6     1   ar
    33    33    28   ar
    34    11     7   ar
    35    23    17    1
    36    26    27    1
    37    12    13    1
@<TRIPOS>MOLECULE
*****
 34 37 0 0 0
SMALL
GASTEIGER

@<TRIPOS>ATOM
      1 C         142.9603  142.8085  158.4610 C.ar    1  UNL1        0.0505
      2 C         141.6068  142.3311  158.0252 C.ar    1  UNL1        0.0148
      3 C         140.4867  142.2431  159.0189 C.ar    1  UNL1        0.0060
      4 C         140.7200  142.6324  160.4486 C.ar    1  UNL1        0.0553
      5 C         142.0736  143.1099  160.8844 C.ar    1  UNL1        0.0060
      6 C         143.1937  143.1979  159.8907 C.ar    1  UNL1        0.0148
      7 C         139.5999  142.5444  161.4423 C.ar    1  UNL1        0.2512
      8 N         138.5129  143.5595  161.6379 N.ar    1  UNL1       -0.1058
      9 N         137.6114  143.0682  162.7314 N.ar    1  UNL1       -0.0923
     10 C         138.1411  141.7496  163.2117 C.ar    1  UNL1        0.3086
     11 O         139.3700  141.4259  162.4150 O.2     1  UNL1       -0.4048
     12 N         137.5462  140.9033  164.2979 N.pl3   1  UNL1       -0.2871
     13 H         136.5828  140.7005  164.2921 H       1  UNL1        0.1512
     14 C         138.4192  140.3661  165.3930 C.3     1  UNL1        0.0925
     15 C         138.3236  138.9222  165.7882 C.3     1  UNL1        0.0386
     16 C         139.1443  137.8922  165.0703 C.3     1  UNL1        0.0739
     17 N         139.6647  138.1752  163.6922 N.3     1  UNL1       -0.2704
     18 C         138.6912  137.9580  162.5717 C.3     1  UNL1        0.0748
     19 C         138.9024  138.1500  161.0990 C.3     1  UNL1        0.0494
     20 C         140.1389  138.6064  160.3832 C.3     1  UNL1        0.1437
     21 O         141.4699  138.9837  160.9631 O.3     1  UNL1       -0.3522
     22 C         141.8929  138.9977  162.4022 C.3     1  UNL1        0.1594
     23 C         141.0894  138.6378  163.6167 C.3     1  UNL1        0.1046
     24 O         144.5692  140.3658  157.7939 O.2     1  UNL1       -0.2697
     25 C         144.8848  141.6752  157.1337 C.2     1  UNL1        0.2517
     26 N         144.0804  142.8966  157.4673 N.am    1  UNL1       -0.2803
     27 H         144.2876  143.7560  157.0339 H       1  UNL1        0.1552
     28 C         146.0050  141.7633  156.1399 C.ar    1  UNL1        0.0811
     29 C         145.8123  141.2465  154.7450 C.ar    1  UNL1        0.0068
     30 C         146.9324  141.3346  153.7512 C.ar    1  UNL1        0.0003
     31 C         148.2451  141.9393  154.1524 C.ar    1  UNL1        0.0023
     32 C         148.4378  142.4561  155.5473 C.ar    1  UNL1        0.0298
     33 C         147.3177  142.3680  156.5411 C.ar    1  UNL1        0.1445
     34 F         147.5103  142.8847  157.9360 F       1  UNL1       -0.2040
@<TRIPOS>BOND
     1    24    25    2
     2    25    26   am
     3    26     1    1
     4     1     2   ar
     5     2     3   ar
     6     3     4   ar
     7     4     7    1
     8     7     8   ar
     9     8     9   ar
    10     9    10   ar
    11    10    12    1
    12    12    14    1
    13    14    15    1
    14    15    16    1
    15    16    17    1
    16    17    18    1
    17    18    19    1
    18    19    20    1
    19    20    21    1
    20    21    22    1
    21    22    23    1
    22    10    11   ar
    23     4     5   ar
    24     5     6   ar
    25    25    28    1
    26    28    29   ar
    27    29    30   ar
    28    30    31   ar
    29    31    32   ar
    30    32    33   ar
    31    33    34    1
    32     6     1   ar
    33    33    28   ar
    34    11     7   ar
    35    23    17    1
    36    26    27    1
    37    12    13    1
@<TRIPOS>MOLECULE
*****
 34 37 0 0 0
SMALL
GASTEIGER

@<TRIPOS>ATOM
      1 C         142.7824  138.6971  158.0609 C.ar    1  UNL1        0.0505
      2 C         142.7232  139.9340  157.2146 C.ar    1  UNL1        0.0148
      3 C         142.3487  141.2484  157.8327 C.ar    1  UNL1        0.0060
      4 C         142.0334  141.3260  159.2972 C.ar    1  UNL1        0.0553
      5 C         142.0927  140.0889  160.1435 C.ar    1  UNL1        0.0060
      6 C         142.4671  138.7745  159.5254 C.ar    1  UNL1        0.0148
      7 C         141.6590  142.6403  159.9152 C.ar    1  UNL1        0.2512
      8 N         142.5603  143.8290  160.0732 N.ar    1  UNL1       -0.1058
      9 N         141.7758  144.9201  160.7395 N.ar    1  UNL1       -0.0923
     10 C         140.3897  144.4059  160.9933 C.ar    1  UNL1        0.3086
     11 O         140.3176  142.9970  160.4839 O.2     1  UNL1       -0.4048
     12 N         139.2721  145.1671  161.6425 N.pl3   1  UNL1       -0.2871
     13 H         138.8549  145.9252  161.1729 H       1  UNL1        0.1512
     14 C         138.7902  144.7732  163.0073 C.3     1  UNL1        0.0925
     15 C         137.6945  143.7589  163.1520 C.3     1  UNL1        0.0386
     16 C         137.9023  142.5482  164.0128 C.3     1  UNL1        0.0739
     17 N         138.0393  141.1941  163.3822 N.3     1  UNL1       -0.2704
     18 C         138.4847  140.0921  164.2973 C.3     1  UNL1        0.0748
     19 C         138.7137  138.6449  163.9761 C.3     1  UNL1        0.0494
     20 C         138.5538  137.9422  162.6607 C.3     1  UNL1        0.1437
     21 O         138.1254  138.5131  161.3413 O.3     1  UNL1       -0.3522
     22 C         137.7511  139.9278  161.0117 C.3     1  UNL1        0.1594
     23 C         137.7128  141.1209  161.9201 C.3     1  UNL1        0.1046
     24 O         140.6834  137.0076  156.7417 O.2     1  UNL1       -0.2697
     25 C         142.1074  136.5379  156.7832 C.2     1  UNL1        0.2517
     26 N         143.1569  137.3827  157.4428 N.am    1  UNL1       -0.2803
     27 H         144.0915  137.0744  157.4700 H       1  UNL1        0.1552
     28 C         142.4819  135.2235  156.1651 C.ar    1  UNL1        0.0811
     29 C         142.1649  134.9552  154.7237 C.ar    1  UNL1        0.0068
     30 C         142.5394  133.6407  154.1056 C.ar    1  UNL1        0.0003
     31 C         143.2308  132.5947  154.9289 C.ar    1  UNL1        0.0023
     32 C         143.5477  132.8630  156.3703 C.ar    1  UNL1        0.0298
     33 C         143.1732  134.1774  156.9884 C.ar    1  UNL1        0.1445
     34 F         143.4901  134.4458  158.4297 F       1  UNL1       -0.2040
@<TRIPOS>BOND
     1    24    25    2
     2    25    26   am
     3    26     1    1
     4     1     2   ar
     5     2     3   ar
     6     3     4   ar
     7     4     7    1
     8     7     8   ar
     9     8     9   ar
    10     9    10   ar
    11    10    12    1
    12    12    14    1
    13    14    15    1
    14    15    16    1
    15    16    17    1
    16    17    18    1
    17    18    19    1
    18    19    20    1
    19    20    21    1
    20    21    22    1
    21    22    23    1
    22    10    11   ar
    23     4     5   ar
    24     5     6   ar
    25    25    28    1
    26    28    29   ar
    27    29    30   ar
    28    30    31   ar
    29    31    32   ar
    30    32    33   ar
    31    33    34    1
    32     6     1   ar
    33    33    28   ar
    34    11     7   ar
    35    23    17    1
    36    26    27    1
    37    12    13    1
@<TRIPOS>MOLECULE
*****
 34 37 0 0 0
SMALL
GASTEIGER

@<TRIPOS>ATOM
      1 C         142.6906  138.0750  158.0961 C.ar    1  UNL1        0.0505
      2 C         142.7845  139.5073  157.6607 C.ar    1  UNL1        0.0148
      3 C         143.2339  140.5584  158.6319 C.ar    1  UNL1        0.0060
      4 C         143.5893  140.1774  160.0384 C.ar    1  UNL1        0.0553
      5 C         143.4954  138.7450  160.4738 C.ar    1  UNL1        0.0060
      6 C         143.0460  137.6938  159.5027 C.ar    1  UNL1        0.0148
      7 C         144.0387  141.2285  161.0095 C.ar    1  UNL1        0.2512
      8 N         144.9524  141.0148  162.1799 N.ar    1  UNL1       -0.1058
      9 N         145.1316  142.3321  162.8745 N.ar    1  UNL1       -0.0923
     10 C         144.3288  143.3599  162.1335 C.ar    1  UNL1        0.3086
     11 O         143.6534  142.6778  160.9809 O.2     1  UNL1       -0.4048
     12 N         144.2205  144.8145  162.4837 N.pl3   1  UNL1       -0.2871
     13 H         144.5909  145.4958  161.8771 H       1  UNL1        0.1512
     14 C         143.5478  145.2309  163.7580 C.3     1  UNL1        0.0925
     15 C         142.0503  145.2545  163.8427 C.3     1  UNL1        0.0386
     16 C         141.3075  144.0452  164.3280 C.3     1  UNL1        0.0739
     17 N         140.9932  142.9270  163.3789 N.3     1  UNL1       -0.2704
     18 C         140.4068  143.3378  162.0607 C.3     1  UNL1        0.0748
     19 C         139.9892  142.4688  160.9114 C.3     1  UNL1        0.0494
     20 C         140.0549  140.9748  160.7966 C.3     1  UNL1        0.1437
     21 O         140.5544  139.9804  161.8024 O.3     1  UNL1       -0.3522
     22 C         141.1115  140.2346  163.1717 C.3     1  UNL1        0.1594
     23 C         141.3068  141.5460  163.8732 C.3     1  UNL1        0.1046
     24 O         144.5427  137.1477  155.9258 O.2     1  UNL1       -0.2697
     25 C         143.1673  136.5602  156.0398 C.2     1  UNL1        0.2517
     26 N         142.2412  137.0239  157.1250 N.am    1  UNL1       -0.2803
     27 H         141.3384  136.6383  157.1998 H       1  UNL1        0.1552
     28 C         142.7179  135.5090  155.0687 C.ar    1  UNL1        0.0811
     29 C         141.7894  135.8715  153.9477 C.ar    1  UNL1        0.0068
     30 C         141.3400  134.8203  152.9765 C.ar    1  UNL1        0.0003
     31 C         141.8191  133.4068  153.1264 C.ar    1  UNL1        0.0023
     32 C         142.7476  133.0444  154.2474 C.ar    1  UNL1        0.0298
     33 C         143.1970  134.0955  155.2186 C.ar    1  UNL1        0.1445
     34 F         144.1254  133.7333  156.3395 F       1  UNL1       -0.2040
@<TRIPOS>BOND
     1    24    25    2
     2    25    26   am
     3    26     1    1
     4     1     2   ar
     5     2     3   ar
     6     3     4   ar
     7     4     7    1
     8     7     8   ar
     9     8     9   ar
    10     9    10   ar
    11    10    12    1
    12    12    14    1
    13    14    15    1
    14    15    16    1
    15    16    17    1
    16    17    18    1
    17    18    19    1
    18    19    20    1
    19    20    21    1
    20    21    22    1
    21    22    23    1
    22    10    11   ar
    23     4     5   ar
    24     5     6   ar
    25    25    28    1
    26    28    29   ar
    27    29    30   ar
    28    30    31   ar
    29    31    32   ar
    30    32    33   ar
    31    33    34    1
    32     6     1   ar
    33    33    28   ar
    34    11     7   ar
    35    23    17    1
    36    26    27    1
    37    12    13    1
@<TRIPOS>MOLECULE
*****
 34 37 0 0 0
SMALL
GASTEIGER

@<TRIPOS>ATOM
      1 C         142.4334  138.0026  158.2193 C.ar    1  UNL1        0.0505
      2 C         142.2689  139.3869  157.6660 C.ar    1  UNL1        0.0148
      3 C         142.6191  140.5778  158.5082 C.ar    1  UNL1        0.0060
      4 C         143.1338  140.3842  159.9037 C.ar    1  UNL1        0.0553
      5 C         143.2983  138.9997  160.4571 C.ar    1  UNL1        0.0060
      6 C         142.9481  137.8089  159.6148 C.ar    1  UNL1        0.0148
      7 C         143.4839  141.5750  160.7459 C.ar    1  UNL1        0.2512
      8 N         144.7313  141.7414  161.5623 N.ar    1  UNL1       -0.1058
      9 N         144.6665  143.0777  162.2405 N.ar    1  UNL1       -0.0923
     10 C         143.3791  143.7372  161.8434 C.ar    1  UNL1        0.3086
     11 O         142.6483  142.8084  160.9197 O.2     1  UNL1       -0.4048
     12 N         142.9057  145.0882  162.2914 N.pl3   1  UNL1       -0.2871
     13 H         143.1337  145.8889  161.7659 H       1  UNL1        0.1512
     14 C         142.0849  145.2192  163.5400 C.3     1  UNL1        0.0925
     15 C         140.5872  145.2261  163.4558 C.3     1  UNL1        0.0386
     16 C         139.9083  145.7163  162.2113 C.3     1  UNL1        0.0739
     17 N         139.8019  144.8208  161.0127 N.3     1  UNL1       -0.2704
     18 C         139.2427  143.4528  161.2700 C.3     1  UNL1        0.0748
     19 C         139.0122  142.3378  160.2934 C.3     1  UNL1        0.0494
     20 C         139.2839  142.3154  158.8185 C.3     1  UNL1        0.1437
     21 O         139.8533  143.4023  157.9557 O.3     1  UNL1       -0.3522
     22 C         140.2915  144.7802  158.3548 C.3     1  UNL1        0.1594
     23 C         140.2686  145.4114  159.7154 C.3     1  UNL1        0.1046
     24 O         144.3217  137.0685  156.0833 O.2     1  UNL1       -0.2697
     25 C         143.0274  136.3447  156.3091 C.2     1  UNL1        0.2517
     26 N         142.0833  136.8117  157.3771 N.am    1  UNL1       -0.2803
     27 H         141.2338  136.3367  157.5252 H       1  UNL1        0.1552
     28 C         142.6772  135.1539  155.4668 C.ar    1  UNL1        0.0811
     29 C         142.3484  135.3332  154.0144 C.ar    1  UNL1        0.0068
     30 C         141.9982  134.1424  153.1721 C.ar    1  UNL1        0.0003
     31 C         141.9769  132.7723  153.7824 C.ar    1  UNL1        0.0023
     32 C         142.3057  132.5930  155.2349 C.ar    1  UNL1        0.0298
     33 C         142.6559  133.7838  156.0771 C.ar    1  UNL1        0.1445
     34 F         142.9847  133.6046  157.5296 F       1  UNL1       -0.2040
@<TRIPOS>BOND
     1    24    25    2
     2    25    26   am
     3    26     1    1
     4     1     2   ar
     5     2     3   ar
     6     3     4   ar
     7     4     7    1
     8     7     8   ar
     9     8     9   ar
    10     9    10   ar
    11    10    12    1
    12    12    14    1
    13    14    15    1
    14    15    16    1
    15    16    17    1
    16    17    18    1
    17    18    19    1
    18    19    20    1
    19    20    21    1
    20    21    22    1
    21    22    23    1
    22    10    11   ar
    23     4     5   ar
    24     5     6   ar
    25    25    28    1
    26    28    29   ar
    27    29    30   ar
    28    30    31   ar
    29    31    32   ar
    30    32    33   ar
    31    33    34    1
    32     6     1   ar
    33    33    28   ar
    34    11     7   ar
    35    23    17    1
    36    26    27    1
    37    12    13    1
