@<TRIPOS>MOLECULE
*****
 31 34 0 0 0
SMALL
GASTEIGER

@<TRIPOS>ATOM
      1 C         141.3782  141.8776  162.9206 C.3     1  UNL1        0.1046
      2 C         141.9057  140.8619  167.2727 C.ar    1  UNL1        0.0536
      3 C         142.7480  141.9327  166.6450 C.ar    1  UNL1        0.0042
      4 C         142.5721  142.2713  165.1943 C.ar    1  UNL1       -0.0025
      5 C         141.5540  141.5391  164.3713 C.ar    1  UNL1       -0.0036
      6 C         140.7118  140.4683  164.9990 C.ar    1  UNL1       -0.0025
      7 C         140.8876  140.1297  166.4497 C.ar    1  UNL1        0.0042
      8 N         141.2706  141.2373  169.7638 N.am    1  UNL1       -0.2743
      9 C         141.4464  140.8987  171.2144 C.3     1  UNL1        0.1152
     10 C         142.0816  140.5233  168.7233 C.2     1  UNL1        0.2491
     11 O         143.0684  139.4709  169.1336 O.2     1  UNL1       -0.2699
     12 C         140.5418  143.7298  169.6847 C.3     1  UNL1        0.0233
     13 C         140.2837  142.2898  169.3535 C.3     1  UNL1        0.0938
     14 C         140.8784  143.2347  162.5224 C.ar    1  UNL1        0.0156
     15 C         139.7862  143.8932  163.3121 C.ar    1  UNL1        0.0005
     16 C         139.2864  145.2502  162.9139 C.ar    1  UNL1        0.0204
     17 C         139.8787  145.9488  161.7261 C.ar    1  UNL1        0.0989
     18 N         140.9709  145.2904  160.9364 N.ar    1  UNL1       -0.2426
     19 C         141.4707  143.9333  161.3346 C.ar    1  UNL1        0.0962
     20 N         141.7021  140.8592  161.8682 N.3     1  UNL1       -0.2643
     21 C         143.1318  140.5762  161.5131 C.3     1  UNL1        0.0901
     22 C         143.4557  139.5577  160.4606 C.3     1  UNL1        0.0900
     23 N         142.3500  138.8222  159.7632 N.3     1  UNL1       -0.2652
     24 C         140.9204  139.1051  160.1182 C.3     1  UNL1        0.0900
     25 C         140.5964  140.1236  161.1707 C.3     1  UNL1        0.0901
     26 C         142.6739  137.8037  158.7106 C.3     1  UNL1        0.1193
     27 C         142.9427  138.2411  157.3012 C.ar    1  UNL1        0.0823
     28 C         142.4302  139.4933  156.6537 C.ar    1  UNL1        0.0530
     29 S         142.9419  139.5292  155.2442 S.2     1  UNL1       -0.0643
     30 C         143.7707  138.2992  155.0205 C.ar    1  UNL1        0.1341
     31 N         143.7712  137.5030  156.2918 N.ar    1  UNL1       -0.2392
@<TRIPOS>BOND
     1    12    13    1
     2    13     8    1
     3     8     9    1
     4     8    10   am
     5    10    11    2
     6    10     2    1
     7     2     3   ar
     8     3     4   ar
     9     4     5   ar
    10     5     1    1
    11     1    14    1
    12    14    15   ar
    13    15    16   ar
    14    16    17   ar
    15    17    18   ar
    16    18    19   ar
    17     1    20    1
    18    20    21    1
    19    21    22    1
    20    22    23    1
    21    23    26    1
    22    26    27    1
    23    27    28   ar
    24    28    29   ar
    25    29    30   ar
    26    30    31   ar
    27    23    24    1
    28    24    25    1
    29     5     6   ar
    30     6     7   ar
    31     7     2   ar
    32    19    14   ar
    33    25    20    1
    34    31    27   ar
@<TRIPOS>MOLECULE
*****
 31 34 0 0 0
SMALL
GASTEIGER

@<TRIPOS>ATOM
      1 C         140.8344  141.5077  162.2553 C.3     1  UNL1        0.1046
      2 C         142.1935  139.8043  166.1925 C.ar    1  UNL1        0.0536
      3 C         142.8880  141.0010  165.6133 C.ar    1  UNL1        0.0042
      4 C         142.4349  141.5688  164.3009 C.ar    1  UNL1       -0.0025
      5 C         141.2874  140.9399  163.5677 C.ar    1  UNL1       -0.0036
      6 C         140.5929  139.7432  164.1469 C.ar    1  UNL1       -0.0025
      7 C         141.0459  139.1754  165.4593 C.ar    1  UNL1        0.0042
      8 N         141.9992  139.6876  168.7806 N.am    1  UNL1       -0.2743
      9 C         142.4523  139.1198  170.0930 C.3     1  UNL1        0.1152
     10 C         142.6465  139.2366  167.5049 C.2     1  UNL1        0.2491
     11 O         143.7467  138.2177  167.5415 O.2     1  UNL1       -0.2699
     12 C         139.4684  140.2698  168.8570 C.3     1  UNL1        0.0233
     13 C         140.8989  140.7065  168.7440 C.3     1  UNL1        0.0938
     14 C         140.4811  142.9616  162.1490 C.ar    1  UNL1        0.0156
     15 C         139.4710  143.5583  163.0838 C.ar    1  UNL1        0.0005
     16 C         139.1177  145.0122  162.9775 C.ar    1  UNL1        0.0204
     17 C         139.7745  145.8694  161.9365 C.ar    1  UNL1        0.0989
     18 N         140.7846  145.2728  161.0018 N.ar    1  UNL1       -0.2426
     19 C         141.1379  143.8188  161.1080 C.ar    1  UNL1        0.0962
     20 N         140.7346  140.6216  161.0491 N.3     1  UNL1       -0.2643
     21 C         141.9782  140.0598  160.4263 C.3     1  UNL1        0.0901
     22 C         141.8784  139.1736  159.2201 C.3     1  UNL1        0.0900
     23 N         140.5350  138.8493  158.6368 N.3     1  UNL1       -0.2652
     24 C         139.2915  139.4111  159.2597 C.3     1  UNL1        0.0900
     25 C         139.3912  140.2972  160.4658 C.3     1  UNL1        0.0901
     26 C         140.4352  137.9631  157.4306 C.3     1  UNL1        0.1193
     27 C         141.6755  137.5698  156.6843 C.ar    1  UNL1        0.0823
     28 C         142.2959  138.3240  155.5457 C.ar    1  UNL1        0.0530
     29 S         143.5169  137.5736  155.1032 S.2     1  UNL1       -0.0643
     30 C         143.6512  136.3555  155.9682 C.ar    1  UNL1        0.1341
     31 N         142.5132  136.3531  156.9454 N.ar    1  UNL1       -0.2392
@<TRIPOS>BOND
     1    12    13    1
     2    13     8    1
     3     8     9    1
     4     8    10   am
     5    10    11    2
     6    10     2    1
     7     2     3   ar
     8     3     4   ar
     9     4     5   ar
    10     5     1    1
    11     1    14    1
    12    14    15   ar
    13    15    16   ar
    14    16    17   ar
    15    17    18   ar
    16    18    19   ar
    17     1    20    1
    18    20    21    1
    19    21    22    1
    20    22    23    1
    21    23    26    1
    22    26    27    1
    23    27    28   ar
    24    28    29   ar
    25    29    30   ar
    26    30    31   ar
    27    23    24    1
    28    24    25    1
    29     5     6   ar
    30     6     7   ar
    31     7     2   ar
    32    19    14   ar
    33    25    20    1
    34    31    27   ar
@<TRIPOS>MOLECULE
*****
 31 34 0 0 0
SMALL
GASTEIGER

@<TRIPOS>ATOM
      1 C         142.2413  142.3877  161.9474 C.3     1  UNL1        0.1046
      2 C         142.7638  140.0912  165.7818 C.ar    1  UNL1        0.0536
      3 C         143.7874  141.1078  165.3710 C.ar    1  UNL1        0.0042
      4 C         143.6132  141.8733  164.0929 C.ar    1  UNL1       -0.0025
      5 C         142.4155  141.6222  163.2255 C.ar    1  UNL1       -0.0036
      6 C         141.3919  140.6056  163.6363 C.ar    1  UNL1       -0.0025
      7 C         141.5661  139.8401  164.9144 C.ar    1  UNL1        0.0042
      8 N         142.2370  139.7780  168.3065 N.am    1  UNL1       -0.2743
      9 C         142.4111  139.0125  169.5847 C.3     1  UNL1        0.1152
     10 C         142.9379  139.3257  167.0600 C.2     1  UNL1        0.2491
     11 O         143.8130  138.1078  167.0915 O.2     1  UNL1       -0.2699
     12 C         139.9674  140.9318  168.8240 C.3     1  UNL1        0.0233
     13 C         141.3618  140.9959  168.2750 C.3     1  UNL1        0.0938
     14 C         141.3632  143.6034  161.9149 C.ar    1  UNL1        0.0156
     15 C         141.5464  144.6883  162.9344 C.ar    1  UNL1        0.0005
     16 C         140.6683  145.9040  162.9020 C.ar    1  UNL1        0.0204
     17 C         139.6070  146.0347  161.8500 C.ar    1  UNL1        0.0989
     18 N         139.4238  144.9498  160.8305 N.ar    1  UNL1       -0.2426
     19 C         140.3020  143.7341  160.8630 C.ar    1  UNL1        0.0962
     20 N         142.9453  141.9376  160.7017 N.3     1  UNL1       -0.2643
     21 C         143.7331  142.9213  159.8883 C.3     1  UNL1        0.0901
     22 C         144.4371  142.4711  158.6425 C.3     1  UNL1        0.0900
     23 N         144.3532  141.0372  158.2102 N.3     1  UNL1       -0.2652
     24 C         143.5654  140.0535  159.0236 C.3     1  UNL1        0.0900
     25 C         142.8615  140.5036  160.2693 C.3     1  UNL1        0.0901
     26 C         145.0572  140.5870  156.9645 C.3     1  UNL1        0.1193
     27 C         145.6617  141.5993  156.0372 C.ar    1  UNL1        0.0823
     28 C         147.0991  142.0273  156.0153 C.ar    1  UNL1        0.0530
     29 S         147.2607  143.0538  154.9335 S.2     1  UNL1       -0.0643
     30 C         145.9231  143.2603  154.2869 C.ar    1  UNL1        0.1341
     31 N         144.9348  142.3613  154.9689 N.ar    1  UNL1       -0.2392
@<TRIPOS>BOND
     1    12    13    1
     2    13     8    1
     3     8     9    1
     4     8    10   am
     5    10    11    2
     6    10     2    1
     7     2     3   ar
     8     3     4   ar
     9     4     5   ar
    10     5     1    1
    11     1    14    1
    12    14    15   ar
    13    15    16   ar
    14    16    17   ar
    15    17    18   ar
    16    18    19   ar
    17     1    20    1
    18    20    21    1
    19    21    22    1
    20    22    23    1
    21    23    26    1
    22    26    27    1
    23    27    28   ar
    24    28    29   ar
    25    29    30   ar
    26    30    31   ar
    27    23    24    1
    28    24    25    1
    29     5     6   ar
    30     6     7   ar
    31     7     2   ar
    32    19    14   ar
    33    25    20    1
    34    31    27   ar
@<TRIPOS>MOLECULE
*****
 31 34 0 0 0
SMALL
GASTEIGER

@<TRIPOS>ATOM
      1 C         140.8522  141.3129  162.1194 C.3     1  UNL1        0.1046
      2 C         142.2310  139.6996  166.0875 C.ar    1  UNL1        0.0536
      3 C         142.9587  140.8459  165.4502 C.ar    1  UNL1        0.0042
      4 C         142.4991  141.3837  164.1275 C.ar    1  UNL1       -0.0025
      5 C         141.3118  140.7751  163.4421 C.ar    1  UNL1       -0.0036
      6 C         140.5841  139.6287  164.0794 C.ar    1  UNL1       -0.0025
      7 C         141.0437  139.0909  165.4021 C.ar    1  UNL1        0.0042
      8 N         142.0060  139.5922  168.6736 N.am    1  UNL1       -0.2743
      9 C         142.4656  139.0544  169.9963 C.3     1  UNL1        0.1152
     10 C         142.6906  139.1618  167.4102 C.2     1  UNL1        0.2491
     11 O         143.8347  138.1936  167.4696 O.2     1  UNL1       -0.2699
     12 C         139.5213  140.1718  169.1637 C.3     1  UNL1        0.0233
     13 C         140.8618  140.5604  168.6143 C.3     1  UNL1        0.0938
     14 C         140.4966  142.7636  161.9822 C.ar    1  UNL1        0.0156
     15 C         141.5676  143.7747  161.6977 C.ar    1  UNL1        0.0005
     16 C         141.2119  145.2254  161.5606 C.ar    1  UNL1        0.0204
     17 C         139.7854  145.6652  161.7079 C.ar    1  UNL1        0.0989
     18 N         138.7145  144.6541  161.9923 N.ar    1  UNL1       -0.2426
     19 C         139.0701  143.2033  162.1295 C.ar    1  UNL1        0.0962
     20 N         140.7483  140.3999  160.9338 N.3     1  UNL1       -0.2643
     21 C         139.4289  139.7825  160.5760 C.3     1  UNL1        0.0901
     22 C         139.3249  138.8695  159.3904 C.3     1  UNL1        0.0900
     23 N         140.5403  138.5739  158.5626 N.3     1  UNL1       -0.2652
     24 C         141.8597  139.1913  158.9203 C.3     1  UNL1        0.0900
     25 C         141.9637  140.1043  160.1059 C.3     1  UNL1        0.0901
     26 C         140.4364  137.6609  157.3769 C.3     1  UNL1        0.1193
     27 C         139.5511  138.0280  156.2230 C.ar    1  UNL1        0.0823
     28 C         139.6212  139.2973  155.4268 C.ar    1  UNL1        0.0530
     29 S         138.5537  139.2440  154.3744 S.2     1  UNL1       -0.0643
     30 C         137.8238  137.9417  154.5202 C.ar    1  UNL1        0.1341
     31 N         138.4401  137.1901  155.6627 N.ar    1  UNL1       -0.2392
@<TRIPOS>BOND
     1    12    13    1
     2    13     8    1
     3     8     9    1
     4     8    10   am
     5    10    11    2
     6    10     2    1
     7     2     3   ar
     8     3     4   ar
     9     4     5   ar
    10     5     1    1
    11     1    14    1
    12    14    15   ar
    13    15    16   ar
    14    16    17   ar
    15    17    18   ar
    16    18    19   ar
    17     1    20    1
    18    20    21    1
    19    21    22    1
    20    22    23    1
    21    23    26    1
    22    26    27    1
    23    27    28   ar
    24    28    29   ar
    25    29    30   ar
    26    30    31   ar
    27    23    24    1
    28    24    25    1
    29     5     6   ar
    30     6     7   ar
    31     7     2   ar
    32    19    14   ar
    33    25    20    1
    34    31    27   ar
@<TRIPOS>MOLECULE
*****
 31 34 0 0 0
SMALL
GASTEIGER

@<TRIPOS>ATOM
      1 C         141.4588  140.8496  162.5287 C.3     1  UNL1        0.1046
      2 C         139.1591  139.6921  166.2195 C.ar    1  UNL1        0.0536
      3 C         140.4533  139.0062  165.8963 C.ar    1  UNL1        0.0042
      4 C         141.2199  139.3920  164.6660 C.ar    1  UNL1       -0.0025
      5 C         140.6922  140.4637  163.7589 C.ar    1  UNL1       -0.0036
      6 C         139.3980  141.1497  164.0821 C.ar    1  UNL1       -0.0025
      7 C         138.6315  140.7638  165.3124 C.ar    1  UNL1        0.0042
      8 N         138.7485  139.9109  168.7755 N.am    1  UNL1       -0.2743
      9 C         137.9819  139.5251  170.0058 C.3     1  UNL1        0.1152
     10 C         138.3926  139.3063  167.4497 C.2     1  UNL1        0.2491
     11 O         137.2702  138.3158  167.3542 O.2     1  UNL1       -0.2699
     12 C         141.2351  140.4498  169.3011 C.3     1  UNL1        0.0233
     13 C         139.8709  140.9014  168.8711 C.3     1  UNL1        0.0938
     14 C         142.3797  142.0332  162.5592 C.ar    1  UNL1        0.0156
     15 C         143.5687  142.0349  163.4737 C.ar    1  UNL1        0.0005
     16 C         144.4896  143.2185  163.5042 C.ar    1  UNL1        0.0204
     17 C         144.2215  144.4004  162.6203 C.ar    1  UNL1        0.0989
     18 N         143.0325  144.3987  161.7059 N.ar    1  UNL1       -0.2426
     19 C         142.1115  143.2151  161.6753 C.ar    1  UNL1        0.0962
     20 N         141.3044  140.0518  161.2679 N.3     1  UNL1       -0.2643
     21 C         142.2701  138.9470  160.9564 C.3     1  UNL1        0.0901
     22 C         142.1157  138.1492  159.6955 C.3     1  UNL1        0.0900
     23 N         140.9957  138.4562  158.7462 N.3     1  UNL1       -0.2652
     24 C         140.0300  139.5609  159.0577 C.3     1  UNL1        0.0900
     25 C         140.1843  140.3587  160.3185 C.3     1  UNL1        0.0901
     26 C         140.8413  137.6584  157.4853 C.3     1  UNL1        0.1193
     27 C         142.0541  137.1244  156.7824 C.ar    1  UNL1        0.0823
     28 C         143.0076  137.9203  155.9414 C.ar    1  UNL1        0.0530
     29 S         144.0691  136.9886  155.4364 S.2     1  UNL1       -0.0643
     30 C         143.7716  135.6168  155.9652 C.ar    1  UNL1        0.1341
     31 N         142.5263  135.7007  156.7971 N.ar    1  UNL1       -0.2392
@<TRIPOS>BOND
     1    12    13    1
     2    13     8    1
     3     8     9    1
     4     8    10   am
     5    10    11    2
     6    10     2    1
     7     2     3   ar
     8     3     4   ar
     9     4     5   ar
    10     5     1    1
    11     1    14    1
    12    14    15   ar
    13    15    16   ar
    14    16    17   ar
    15    17    18   ar
    16    18    19   ar
    17     1    20    1
    18    20    21    1
    19    21    22    1
    20    22    23    1
    21    23    26    1
    22    26    27    1
    23    27    28   ar
    24    28    29   ar
    25    29    30   ar
    26    30    31   ar
    27    23    24    1
    28    24    25    1
    29     5     6   ar
    30     6     7   ar
    31     7     2   ar
    32    19    14   ar
    33    25    20    1
    34    31    27   ar
@<TRIPOS>MOLECULE
*****
 31 34 0 0 0
SMALL
GASTEIGER

@<TRIPOS>ATOM
      1 C         141.2205  140.6832  158.3505 C.3     1  UNL1        0.1046
      2 C         143.1332  142.9015  161.7667 C.ar    1  UNL1        0.0536
      3 C         143.9878  142.3022  160.6895 C.ar    1  UNL1        0.0042
      4 C         143.3502  141.5628  159.5507 C.ar    1  UNL1       -0.0025
      5 C         141.8581  141.4226  159.4892 C.ar    1  UNL1       -0.0036
      6 C         141.0035  142.0219  160.5664 C.ar    1  UNL1       -0.0025
      7 C         141.6411  142.7614  161.7052 C.ar    1  UNL1        0.0042
      8 N         144.0883  142.9215  164.1828 N.am    1  UNL1       -0.2743
      9 C         144.7258  143.6610  165.3215 C.3     1  UNL1        0.1152
     10 C         143.7708  143.6410  162.9055 C.2     1  UNL1        0.2491
     11 O         144.0908  145.0998  162.7669 O.2     1  UNL1       -0.2699
     12 C         144.8275  140.4340  164.0574 C.3     1  UNL1        0.0233
     13 C         143.7682  141.4626  164.3214 C.3     1  UNL1        0.0938
     14 C         139.8733  141.1045  157.8433 C.ar    1  UNL1        0.0156
     15 C         139.7201  142.4055  157.1126 C.ar    1  UNL1        0.0005
     16 C         138.3728  142.8268  156.6054 C.ar    1  UNL1        0.0204
     17 C         137.1786  141.9471  156.8289 C.ar    1  UNL1        0.0989
     18 N         137.3317  140.6461  157.5596 N.ar    1  UNL1       -0.2426
     19 C         138.6790  140.2248  158.0668 C.ar    1  UNL1        0.0962
     20 N         141.9303  139.5225  157.7189 N.3     1  UNL1       -0.2643
     21 C         142.5620  139.6751  156.3670 C.3     1  UNL1        0.0901
     22 C         143.2718  138.5143  155.7354 C.3     1  UNL1        0.0900
     23 N         143.3498  137.2009  156.4557 N.3     1  UNL1       -0.2652
     24 C         142.7180  137.0482  157.8076 C.3     1  UNL1        0.0900
     25 C         142.0083  138.2090  158.4392 C.3     1  UNL1        0.0901
     26 C         144.0595  136.0401  155.8242 C.3     1  UNL1        0.1193
     27 C         143.5801  134.6411  156.0753 C.ar    1  UNL1        0.0823
     28 C         142.4894  133.9350  155.3258 C.ar    1  UNL1        0.0530
     29 S         142.3423  132.5602  155.9073 S.2     1  UNL1       -0.0643
     30 C         143.3421  132.4166  157.0163 C.ar    1  UNL1        0.1341
     31 N         144.1072  133.7027  157.1201 N.ar    1  UNL1       -0.2392
@<TRIPOS>BOND
     1    12    13    1
     2    13     8    1
     3     8     9    1
     4     8    10   am
     5    10    11    2
     6    10     2    1
     7     2     3   ar
     8     3     4   ar
     9     4     5   ar
    10     5     1    1
    11     1    14    1
    12    14    15   ar
    13    15    16   ar
    14    16    17   ar
    15    17    18   ar
    16    18    19   ar
    17     1    20    1
    18    20    21    1
    19    21    22    1
    20    22    23    1
    21    23    26    1
    22    26    27    1
    23    27    28   ar
    24    28    29   ar
    25    29    30   ar
    26    30    31   ar
    27    23    24    1
    28    24    25    1
    29     5     6   ar
    30     6     7   ar
    31     7     2   ar
    32    19    14   ar
    33    25    20    1
    34    31    27   ar
@<TRIPOS>MOLECULE
*****
 31 34 0 0 0
SMALL
GASTEIGER

@<TRIPOS>ATOM
      1 C         142.8469  138.3030  158.0411 C.3     1  UNL1        0.1046
      2 C         141.9615  138.2096  162.4522 C.ar    1  UNL1        0.0536
      3 C         140.8612  138.4902  161.4722 C.ar    1  UNL1        0.0042
      4 C         141.1563  138.5213  160.0018 C.ar    1  UNL1       -0.0025
      5 C         142.5517  138.2719  159.5115 C.ar    1  UNL1       -0.0036
      6 C         143.6521  137.9912  160.4915 C.ar    1  UNL1       -0.0025
      7 C         143.3569  137.9601  161.9619 C.ar    1  UNL1        0.0042
      8 N         141.8840  139.4055  164.7574 N.am    1  UNL1       -0.2743
      9 C         141.5889  139.3743  166.2277 C.3     1  UNL1        0.1152
     10 C         141.6664  138.1784  163.9226 C.2     1  UNL1        0.2491
     11 O         141.1536  136.9202  164.5581 O.2     1  UNL1       -0.2699
     12 C         143.5185  141.4250  164.7639 C.3     1  UNL1        0.0233
     13 C         142.3968  140.6638  164.1218 C.3     1  UNL1        0.0938
     14 C         142.2602  137.2605  157.1362 C.ar    1  UNL1        0.0156
     15 C         142.9283  135.9245  156.9989 C.ar    1  UNL1        0.0005
     16 C         142.3416  134.8821  156.0939 C.ar    1  UNL1        0.0204
     17 C         141.0868  135.1755  155.3262 C.ar    1  UNL1        0.0989
     18 N         140.4187  136.5114  155.4635 N.ar    1  UNL1       -0.2426
     19 C         141.0054  137.5540  156.3685 C.ar    1  UNL1        0.0962
     20 N         143.7287  139.3766  157.4758 N.3     1  UNL1       -0.2643
     21 C         143.9675  140.6374  158.2526 C.3     1  UNL1        0.0901
     22 C         144.8494  141.7111  157.6871 C.3     1  UNL1        0.0900
     23 N         145.4923  141.5239  156.3449 N.3     1  UNL1       -0.2652
     24 C         145.2535  140.2631  155.5681 C.3     1  UNL1        0.0900
     25 C         144.3717  139.1895  156.1335 C.3     1  UNL1        0.0901
     26 C         146.3742  142.5975  155.7794 C.3     1  UNL1        0.1193
     27 C         147.7289  142.2478  155.2387 C.ar    1  UNL1        0.0823
     28 C         148.1149  142.2014  153.7900 C.ar    1  UNL1        0.0530
     29 S         149.5601  141.8080  153.7076 S.2     1  UNL1       -0.0643
     30 C         150.0673  141.6113  155.1055 C.ar    1  UNL1        0.1341
     31 N         148.9356  141.8831  156.0518 N.ar    1  UNL1       -0.2392
@<TRIPOS>BOND
     1    12    13    1
     2    13     8    1
     3     8     9    1
     4     8    10   am
     5    10    11    2
     6    10     2    1
     7     2     3   ar
     8     3     4   ar
     9     4     5   ar
    10     5     1    1
    11     1    14    1
    12    14    15   ar
    13    15    16   ar
    14    16    17   ar
    15    17    18   ar
    16    18    19   ar
    17     1    20    1
    18    20    21    1
    19    21    22    1
    20    22    23    1
    21    23    26    1
    22    26    27    1
    23    27    28   ar
    24    28    29   ar
    25    29    30   ar
    26    30    31   ar
    27    23    24    1
    28    24    25    1
    29     5     6   ar
    30     6     7   ar
    31     7     2   ar
    32    19    14   ar
    33    25    20    1
    34    31    27   ar
@<TRIPOS>MOLECULE
*****
 31 34 0 0 0
SMALL
GASTEIGER

@<TRIPOS>ATOM
      1 C         141.7456  141.1346  161.3764 C.3     1  UNL1        0.1046
      2 C         142.6730  139.5438  165.4824 C.ar    1  UNL1        0.0536
      3 C         141.5098  138.9951  164.7106 C.ar    1  UNL1        0.0042
      4 C         141.2007  139.5254  163.3419 C.ar    1  UNL1       -0.0025
      5 C         142.0548  140.6043  162.7450 C.ar    1  UNL1       -0.0036
      6 C         143.2180  141.1530  163.5168 C.ar    1  UNL1       -0.0025
      7 C         143.5271  140.6228  164.8855 C.ar    1  UNL1        0.0042
      8 N         142.3228  139.6169  168.0557 N.am    1  UNL1       -0.2743
      9 C         142.6319  139.0867  169.4244 C.3     1  UNL1        0.1152
     10 C         142.9822  139.0136  166.8510 C.2     1  UNL1        0.2491
     11 O         143.9506  137.8800  167.0151 O.2     1  UNL1       -0.2699
     12 C         141.5960  142.0517  168.5978 C.3     1  UNL1        0.0233
     13 C         141.3543  140.7506  167.8917 C.3     1  UNL1        0.0938
     14 C         141.3279  142.5647  161.2028 C.ar    1  UNL1        0.0156
     15 C         140.1001  143.0769  161.8960 C.ar    1  UNL1        0.0005
     16 C         139.6823  144.5070  161.7225 C.ar    1  UNL1        0.0204
     17 C         140.4922  145.4250  160.8558 C.ar    1  UNL1        0.0989
     18 N         141.7199  144.9130  160.1626 N.ar    1  UNL1       -0.2426
     19 C         142.1378  143.4828  160.3361 C.ar    1  UNL1        0.0962
     20 N         141.8543  140.2347  160.1812 N.3     1  UNL1       -0.2643
     21 C         140.6895  139.3804  159.7773 C.3     1  UNL1        0.0901
     22 C         140.7982  138.4805  158.5821 C.3     1  UNL1        0.0900
     23 N         142.0717  138.4350  157.7909 N.3     1  UNL1       -0.2652
     24 C         143.2365  139.2894  158.1948 C.3     1  UNL1        0.0900
     25 C         143.1279  140.1892  159.3899 C.3     1  UNL1        0.0901
     26 C         142.1804  137.5351  156.5957 C.3     1  UNL1        0.1193
     27 C         142.5354  136.0889  156.7756 C.ar    1  UNL1        0.0823
     28 C         142.0966  134.9570  155.8944 C.ar    1  UNL1        0.0530
     29 S         142.6815  133.6892  156.4425 S.2     1  UNL1       -0.0643
     30 C         143.4819  134.0374  157.6624 C.ar    1  UNL1        0.1341
     31 N         143.3916  135.5205  157.8684 N.ar    1  UNL1       -0.2392
@<TRIPOS>BOND
     1    12    13    1
     2    13     8    1
     3     8     9    1
     4     8    10   am
     5    10    11    2
     6    10     2    1
     7     2     3   ar
     8     3     4   ar
     9     4     5   ar
    10     5     1    1
    11     1    14    1
    12    14    15   ar
    13    15    16   ar
    14    16    17   ar
    15    17    18   ar
    16    18    19   ar
    17     1    20    1
    18    20    21    1
    19    21    22    1
    20    22    23    1
    21    23    26    1
    22    26    27    1
    23    27    28   ar
    24    28    29   ar
    25    29    30   ar
    26    30    31   ar
    27    23    24    1
    28    24    25    1
    29     5     6   ar
    30     6     7   ar
    31     7     2   ar
    32    19    14   ar
    33    25    20    1
    34    31    27   ar
@<TRIPOS>MOLECULE
*****
 31 34 0 0 0
SMALL
GASTEIGER

@<TRIPOS>ATOM
      1 C         141.5168  141.6381  162.5023 C.3     1  UNL1        0.1046
      2 C         142.5576  139.2502  158.8329 C.ar    1  UNL1        0.0536
      3 C         141.1702  139.7934  159.0056 C.ar    1  UNL1        0.0042
      4 C         140.8233  140.5894  160.2287 C.ar    1  UNL1       -0.0025
      5 C         141.8638  140.8422  161.2791 C.ar    1  UNL1       -0.0036
      6 C         143.2512  140.2989  161.1064 C.ar    1  UNL1       -0.0025
      7 C         143.5981  139.5029  159.8833 C.ar    1  UNL1        0.0042
      8 N         143.5576  139.1257  156.4382 N.am    1  UNL1       -0.2743
      9 C         143.9045  138.3297  155.2151 C.3     1  UNL1        0.1152
     10 C         142.9045  138.4542  157.6098 C.2     1  UNL1        0.2491
     11 O         142.5984  136.9867  157.5582 O.2     1  UNL1       -0.2699
     12 C         145.2406  141.0596  156.8592 C.3     1  UNL1        0.0233
     13 C         143.8637  140.5932  156.4897 C.3     1  UNL1        0.0938
     14 C         140.8909  142.9940  162.3621 C.ar    1  UNL1        0.0156
     15 C         141.4345  143.9714  161.3624 C.ar    1  UNL1        0.0005
     16 C         140.8085  145.3273  161.2222 C.ar    1  UNL1        0.0204
     17 C         139.6389  145.7059  162.0817 C.ar    1  UNL1        0.0989
     18 N         139.0953  144.7286  163.0814 N.ar    1  UNL1       -0.2426
     19 C         139.7213  143.3726  163.2216 C.ar    1  UNL1        0.0962
     20 N         141.7959  141.0783  163.8656 N.3     1  UNL1       -0.2643
     21 C         141.1051  139.8260  164.3179 C.3     1  UNL1        0.0901
     22 C         141.3842  139.2661  165.6812 C.3     1  UNL1        0.0900
     23 N         142.3540  139.9585  166.5922 N.3     1  UNL1       -0.2652
     24 C         143.0448  141.2108  166.1399 C.3     1  UNL1        0.0900
     25 C         142.7657  141.7707  164.7766 C.3     1  UNL1        0.0901
     26 C         142.6331  139.3986  167.9556 C.3     1  UNL1        0.1193
     27 C         142.0354  140.0466  169.1692 C.ar    1  UNL1        0.0823
     28 C         142.6156  141.2039  169.9268 C.ar    1  UNL1        0.0530
     29 S         141.6913  141.5237  171.0641 S.2     1  UNL1       -0.0643
     30 C         140.5398  140.5639  171.0095 C.ar    1  UNL1        0.1341
     31 N         140.7524  139.6510  169.8383 N.ar    1  UNL1       -0.2392
@<TRIPOS>BOND
     1    12    13    1
     2    13     8    1
     3     8     9    1
     4     8    10   am
     5    10    11    2
     6    10     2    1
     7     2     3   ar
     8     3     4   ar
     9     4     5   ar
    10     5     1    1
    11     1    14    1
    12    14    15   ar
    13    15    16   ar
    14    16    17   ar
    15    17    18   ar
    16    18    19   ar
    17     1    20    1
    18    20    21    1
    19    21    22    1
    20    22    23    1
    21    23    26    1
    22    26    27    1
    23    27    28   ar
    24    28    29   ar
    25    29    30   ar
    26    30    31   ar
    27    23    24    1
    28    24    25    1
    29     5     6   ar
    30     6     7   ar
    31     7     2   ar
    32    19    14   ar
    33    25    20    1
    34    31    27   ar
