@<TRIPOS>MOLECULE
*****
 61 66 0 0 0
SMALL
GASTEIGER

@<TRIPOS>ATOM
      1 C         139.9585  143.6137  157.5053 C.3     1  UNL1        0.2066
      2 O         139.8405  144.5892  158.6386 O.3     1  UNL1       -0.4483
      3 C         140.0077  145.0349  160.0611 C.2     1  UNL1        0.3235
      4 O         139.4412  146.4238  160.0444 O.2     1  UNL1       -0.2496
      5 C         140.4270  144.8626  161.4908 C.3     1  UNL1        0.1563
      6 C         140.0471  146.1747  162.1106 C.3     1  UNL1        0.0196
      7 C         141.0154  144.1063  162.6449 C.2     1  UNL1        0.1629
      8 O         140.8974  145.0818  163.7782 O.2     1  UNL1       -0.2954
      9 C         141.6563  142.9159  163.2946 C.3     1  UNL1        0.0877
     10 C         141.8235  143.3616  164.7171 C.3     1  UNL1        0.0104
     11 C         142.2229  141.5271  163.3112 C.3     1  UNL1        0.1490
     12 C         142.6028  140.2149  162.6915 C.3     1  UNL1        0.1141
     13 C         142.9450  140.2510  164.1515 C.3     1  UNL1        0.0318
     14 O         143.2328  138.9292  163.1386 O.3     1  UNL1       -0.3843
     15 C         142.7208  139.2394  161.5582 C.3     1  UNL1        0.0367
     16 C         142.5536  138.7937  160.1358 C.3     1  UNL1        0.0601
     17 C         143.1201  137.4049  160.1524 C.3     1  UNL1        0.0078
     18 C         142.1343  138.9660  158.7060 C.2     1  UNL1        0.1516
     19 O         142.5142  137.6539  158.0862 O.2     1  UNL1       -0.2960
     20 C         141.5459  139.7223  157.5518 C.3     1  UNL1        0.0794
     21 C         141.6639  138.7468  156.4186 C.3     1  UNL1        0.0096
     22 C         140.9050  140.9127  156.9022 C.3     1  UNL1        0.1254
     23 N         140.7939  140.3502  155.5161 N.am    1  UNL1       -0.2426
     24 C         140.1588  141.3914  154.6428 C.2     1  UNL1        0.4049
     25 O         139.8580  141.2511  153.1800 O.2     1  UNL1       -0.2262
     26 O         139.8773  142.5973  155.4892 O.3     1  UNL1       -0.4365
     27 C         140.3384  142.3015  156.8856 C.3     1  UNL1        0.1908
     28 C         139.6993  143.5235  156.2953 C.3     1  UNL1        0.0493
     29 H         143.4420  138.9833  164.0842 H       1  UNL1        0.2103
     30 C         141.2398  138.9861  155.0799 C.3     1  UNL1        0.1105
     31 C         142.4360  138.4420  154.3566 C.3     1  UNL1        0.0939
     32 N         141.8703  137.0568  154.4630 N.3     1  UNL1       -0.2659
     33 C         140.6741  137.6009  155.1863 C.3     1  UNL1        0.0939
     34 C         142.3163  135.6927  154.0268 C.3     1  UNL1        0.1039
     35 C         142.6761  134.6579  155.0513 C.ar    1  UNL1        0.0482
     36 C         143.5788  135.0165  156.1945 C.ar    1  UNL1        0.1515
     37 O         144.1214  136.4098  156.3130 O.3     1  UNL1       -0.5042
     38 C         143.9386  133.9817  157.2190 C.ar    1  UNL1        0.1351
     39 N         143.3959  132.5884  157.1004 N.ar    1  UNL1       -0.2392
     40 C         142.4933  132.2298  155.9573 C.ar    1  UNL1        0.0989
     41 C         141.9506  130.8364  155.8388 C.ar    1  UNL1        0.0222
     42 C         141.0480  130.4779  154.6956 C.ar    1  UNL1        0.0222
     43 C         140.6881  131.5127  153.6710 C.ar    1  UNL1        0.0989
     44 N         141.2308  132.9060  153.7896 N.ar    1  UNL1       -0.2425
     45 C         142.1334  133.2646  154.9327 C.ar    1  UNL1        0.0992
     46 H         143.8966  137.0562  155.6730 H       1  UNL1        0.2922
     47 C         139.7578  145.7997  156.1157 C.3     1  UNL1        0.0040
     48 C         139.3702  144.3699  156.3512 C.3     1  UNL1        0.0474
     49 O         142.6422  141.3547  164.7411 O.3     1  UNL1       -0.3283
     50 C         141.6652  140.8302  165.7511 C.3     1  UNL1        0.2643
     51 O         140.4375  140.0978  165.2971 O.3     1  UNL1       -0.3311
     52 C         139.4604  139.5733  166.3072 C.3     1  UNL1        0.1194
     53 C         138.2326  138.8409  165.8532 C.3     1  UNL1        0.0322
     54 C         139.7111  139.7811  167.7714 C.3     1  UNL1        0.0482
     55 C         140.9389  140.5135  168.2256 C.3     1  UNL1        0.0921
     56 C         141.9159  141.0381  167.2154 C.3     1  UNL1        0.1815
     57 O         143.1437  141.7705  167.6695 O.3     1  UNL1       -0.3783
     58 H         143.1527  141.8169  168.6383 H       1  UNL1        0.2106
     59 N         141.1897  140.7214  169.6898 N.3     1  UNL1       -0.2692
     60 C         142.1934  139.8685  170.4073 C.3     1  UNL1        0.0897
     61 C         140.4366  141.7822  170.4364 C.3     1  UNL1        0.0897
@<TRIPOS>BOND
     1    47    48    1
     2     1    48    1
     3     1     2    1
     4     2     3    1
     5     3     4    2
     6     3     5    1
     7     5     6    1
     8     5     7    1
     9     7     8    2
    10     7     9    1
    11     9    10    1
    12     9    11    1
    13    11    49    1
    14    50    49    1
    15    50    51    1
    16    51    52    1
    17    52    53    1
    18    52    54    1
    19    54    55    1
    20    55    59    1
    21    59    60    1
    22    59    61    1
    23    55    56    1
    24    56    57    1
    25    11    12    1
    26    12    13    1
    27    12    14    1
    28    12    15    1
    29    15    16    1
    30    16    17    1
    31    16    18    1
    32    18    19    2
    33    18    20    1
    34    20    21    1
    35    20    22    1
    36    22    23    1
    37    23    30    1
    38    30    31    1
    39    31    32    1
    40    32    34    1
    41    34    35    1
    42    35    36   ar
    43    36    37    1
    44    36    38   ar
    45    38    39   ar
    46    39    40   ar
    47    40    41   ar
    48    41    42   ar
    49    42    43   ar
    50    43    44   ar
    51    44    45   ar
    52    32    33    1
    53    23    24   am
    54    24    25    2
    55    24    26    1
    56    26    27    1
    57    27    28    1
    58    27     1    1
    59    56    50    1
    60    27    22    1
    61    33    30    1
    62    45    35   ar
    63    45    40   ar
    64    57    58    1
    65    14    29    1
    66    37    46    1
@<TRIPOS>MOLECULE
*****
 61 66 0 0 0
SMALL
GASTEIGER

@<TRIPOS>ATOM
      1 C         140.5499  142.7079  157.1607 C.3     1  UNL1        0.2066
      2 O         140.2365  143.8979  158.0186 O.3     1  UNL1       -0.4483
      3 C         140.2013  144.6621  159.3088 C.2     1  UNL1        0.3235
      4 O         139.5605  145.9588  158.9113 O.2     1  UNL1       -0.2496
      5 C         140.4513  144.8492  160.7759 C.3     1  UNL1        0.1563
      6 C         139.9218  146.2292  161.0314 C.3     1  UNL1        0.0196
      7 C         140.9370  144.4223  162.1294 C.2     1  UNL1        0.1629
      8 O         140.6236  145.6122  162.9871 O.2     1  UNL1       -0.2954
      9 C         141.5621  143.4657  163.1010 C.3     1  UNL1        0.0877
     10 C         141.5269  144.2300  164.3913 C.3     1  UNL1        0.0104
     11 C         142.2029  142.1690  163.4985 C.3     1  UNL1        0.1490
     12 C         142.7325  140.7890  163.2431 C.3     1  UNL1        0.1141
     13 C         142.8902  141.1788  164.6830 C.3     1  UNL1        0.0318
     14 O         143.3773  139.6938  164.0397 O.3     1  UNL1       -0.3843
     15 C         143.0459  139.5991  162.3853 C.3     1  UNL1        0.0367
     16 C         143.0811  138.8348  161.0951 C.3     1  UNL1        0.0601
     17 C         143.7219  137.5382  161.4926 C.3     1  UNL1        0.0078
     18 C         142.8311  138.6477  159.6280 C.2     1  UNL1        0.1516
     19 O         143.3606  137.2677  159.3725 O.2     1  UNL1       -0.2960
     20 C         142.3454  139.0746  158.2745 C.3     1  UNL1        0.0794
     21 C         142.6588  137.8847  157.4168 C.3     1  UNL1        0.0096
     22 C         141.7202  140.0312  157.3028 C.3     1  UNL1        0.1254
     23 N         141.8135  139.1665  156.0807 N.am    1  UNL1       -0.2426
     24 C         141.2303  139.9287  154.9279 C.2     1  UNL1        0.4049
     25 O         141.1201  139.4408  153.5138 O.2     1  UNL1       -0.2262
     26 O         140.7767  141.2645  155.4376 O.3     1  UNL1       -0.4365
     27 C         141.0794  141.3279  156.9053 C.3     1  UNL1        0.1908
     28 C         140.4469  142.3285  155.9840 C.3     1  UNL1        0.0493
     29 H         143.4653  139.9750  164.9639 H       1  UNL1        0.2103
     30 C         142.3889  137.7825  156.0218 C.3     1  UNL1        0.1105
     31 C         141.8924  136.4115  156.3739 C.3     1  UNL1        0.0939
     32 N         143.2026  135.8252  155.9384 N.3     1  UNL1       -0.2659
     33 C         143.6991  137.1962  155.5864 C.3     1  UNL1        0.0939
     34 C         143.7779  134.4411  155.8795 C.3     1  UNL1        0.1039
     35 C         143.0391  133.3517  155.1604 C.ar    1  UNL1        0.0482
     36 C         142.3278  133.6506  153.8740 C.ar    1  UNL1        0.1515
     37 O         142.3555  135.0389  153.3068 O.3     1  UNL1       -0.5042
     38 C         141.5890  132.5612  153.1548 C.ar    1  UNL1        0.1351
     39 N         141.5613  131.1729  153.7221 N.ar    1  UNL1       -0.2392
     40 C         142.2726  130.8740  155.0085 C.ar    1  UNL1        0.0989
     41 C         142.2449  129.4856  155.5757 C.ar    1  UNL1        0.0222
     42 C         142.9561  129.1867  156.8621 C.ar    1  UNL1        0.0222
     43 C         143.6950  130.2762  157.5813 C.ar    1  UNL1        0.0989
     44 N         143.7226  131.6645  157.0141 N.ar    1  UNL1       -0.2425
     45 C         143.0114  131.9634  155.7276 C.ar    1  UNL1        0.0992
     46 H         142.8170  135.7194  153.7560 H       1  UNL1        0.2922
     47 C         138.6942  143.7260  155.6542 C.3     1  UNL1        0.0040
     48 C         140.0642  143.1349  155.8073 C.3     1  UNL1        0.0474
     49 O         142.4529  142.3562  164.9657 O.3     1  UNL1       -0.3283
     50 C         141.6262  141.6078  165.9688 C.3     1  UNL1        0.2643
     51 O         140.3999  140.8659  165.5262 O.3     1  UNL1       -0.3311
     52 C         139.5731  140.1175  166.5294 C.3     1  UNL1        0.1194
     53 C         138.3469  139.3757  166.0868 C.3     1  UNL1        0.0322
     54 C         139.9727  140.1109  167.9752 C.3     1  UNL1        0.0482
     55 C         141.1990  140.8527  168.4178 C.3     1  UNL1        0.0921
     56 C         142.0257  141.6012  167.4146 C.3     1  UNL1        0.1815
     57 O         143.2521  142.3430  167.8572 O.3     1  UNL1       -0.3783
     58 H         143.3660  142.2371  168.8147 H       1  UNL1        0.2106
     59 N         141.5985  140.8461  169.8637 N.3     1  UNL1       -0.2692
     60 C         140.9793  141.8243  170.8173 C.3     1  UNL1        0.0897
     61 C         142.6173  139.8612  170.3557 C.3     1  UNL1        0.0897
@<TRIPOS>BOND
     1    47    48    1
     2     1    48    1
     3     1     2    1
     4     2     3    1
     5     3     4    2
     6     3     5    1
     7     5     6    1
     8     5     7    1
     9     7     8    2
    10     7     9    1
    11     9    10    1
    12     9    11    1
    13    11    49    1
    14    50    49    1
    15    50    51    1
    16    51    52    1
    17    52    53    1
    18    52    54    1
    19    54    55    1
    20    55    59    1
    21    59    60    1
    22    59    61    1
    23    55    56    1
    24    56    57    1
    25    11    12    1
    26    12    13    1
    27    12    14    1
    28    12    15    1
    29    15    16    1
    30    16    17    1
    31    16    18    1
    32    18    19    2
    33    18    20    1
    34    20    21    1
    35    20    22    1
    36    22    23    1
    37    23    30    1
    38    30    31    1
    39    31    32    1
    40    32    34    1
    41    34    35    1
    42    35    36   ar
    43    36    37    1
    44    36    38   ar
    45    38    39   ar
    46    39    40   ar
    47    40    41   ar
    48    41    42   ar
    49    42    43   ar
    50    43    44   ar
    51    44    45   ar
    52    32    33    1
    53    23    24   am
    54    24    25    2
    55    24    26    1
    56    26    27    1
    57    27    28    1
    58    27     1    1
    59    56    50    1
    60    27    22    1
    61    33    30    1
    62    45    35   ar
    63    45    40   ar
    64    57    58    1
    65    14    29    1
    66    37    46    1
@<TRIPOS>MOLECULE
*****
 61 66 0 0 0
SMALL
GASTEIGER

@<TRIPOS>ATOM
      1 C         140.8212  144.8274  157.4897 C.3     1  UNL1        0.2066
      2 O         141.2564  144.7295  156.0576 O.3     1  UNL1       -0.4483
      3 C         141.8158  144.0194  154.8606 C.2     1  UNL1        0.3235
      4 O         141.7859  145.0793  153.7995 O.2     1  UNL1       -0.2496
      5 C         142.3884  142.8376  154.1358 C.3     1  UNL1        0.1563
      6 C         142.6134  143.3714  152.7522 C.3     1  UNL1        0.0196
      7 C         142.8609  141.4181  154.0267 C.2     1  UNL1        0.1629
      8 O         143.2961  141.3203  152.5947 O.2     1  UNL1       -0.2954
      9 C         143.1397  140.0422  154.5551 C.3     1  UNL1        0.0877
     10 C         143.6991  139.3321  153.3581 C.3     1  UNL1        0.0104
     11 C         143.1696  138.9823  155.6161 C.3     1  UNL1        0.1490
     12 C         142.9447  138.4484  156.9998 C.3     1  UNL1        0.1141
     13 C         143.5258  137.4017  156.0961 C.3     1  UNL1        0.0318
     14 O         143.1443  137.1497  157.7231 O.3     1  UNL1       -0.3843
     15 C         142.5094  138.5463  158.4319 C.3     1  UNL1        0.0367
     16 C         141.9501  139.2564  159.6289 C.3     1  UNL1        0.0601
     17 C         141.9800  138.1965  160.6899 C.3     1  UNL1        0.0078
     18 C         141.3775  140.4382  160.3536 C.2     1  UNL1        0.1516
     19 O         141.1525  139.9044  161.7373 O.2     1  UNL1       -0.2960
     20 C         140.9049  141.8577  160.4627 C.3     1  UNL1        0.0794
     21 C         140.4697  141.9555  161.8948 C.3     1  UNL1        0.0096
     22 C         140.6261  143.2336  159.9344 C.3     1  UNL1        0.1254
     23 N         140.0832  143.8290  161.1996 N.am    1  UNL1       -0.2426
     24 C         139.7178  145.2567  160.9206 C.2     1  UNL1        0.4049
     25 O         139.1372  146.2271  161.9062 O.2     1  UNL1       -0.2262
     26 O         140.0348  145.5438  159.4829 O.3     1  UNL1       -0.4365
     27 C         140.5962  144.2935  158.8734 C.3     1  UNL1        0.1908
     28 C         140.3405  145.6495  158.2851 C.3     1  UNL1        0.0493
     29 H         143.5202  136.4949  157.1142 H       1  UNL1        0.2103
     30 C         139.9323  143.1208  162.5133 C.3     1  UNL1        0.1105
     31 C         140.7792  142.9739  163.7426 C.3     1  UNL1        0.0939
     32 N         139.7188  142.1193  164.3711 N.3     1  UNL1       -0.2659
     33 C         138.8718  142.2662  163.1418 C.3     1  UNL1        0.0939
     34 C         139.5679  141.4111  165.6848 C.3     1  UNL1        0.1039
     35 C         140.7512  140.7373  166.3140 C.ar    1  UNL1        0.0482
     36 C         141.3779  139.5476  165.6491 C.ar    1  UNL1        0.1515
     37 O         140.8214  139.0318  164.3553 O.3     1  UNL1       -0.5042
     38 C         142.5612  138.8739  166.2783 C.ar    1  UNL1        0.1351
     39 N         143.1177  139.3897  167.5722 N.ar    1  UNL1       -0.2392
     40 C         142.4910  140.5794  168.2369 C.ar    1  UNL1        0.0989
     41 C         143.0476  141.0952  169.5309 C.ar    1  UNL1        0.0222
     42 C         142.4208  142.2848  170.1956 C.ar    1  UNL1        0.0222
     43 C         141.2375  142.9587  169.5664 C.ar    1  UNL1        0.0989
     44 N         140.6810  142.4429  168.2726 N.ar    1  UNL1       -0.2425
     45 C         141.3077  141.2532  167.6078 C.ar    1  UNL1        0.0992
     46 H         140.0822  139.4527  163.9623 H       1  UNL1        0.2922
     47 C         139.5616  146.8633  156.4806 C.3     1  UNL1        0.0040
     48 C         140.3487  146.2468  157.5988 C.3     1  UNL1        0.0474
     49 O         143.7422  137.8005  154.8913 O.3     1  UNL1       -0.3283
     50 C         142.8484  136.6693  154.4775 C.3     1  UNL1        0.2643
     51 O         141.6148  136.9450  153.6700 O.3     1  UNL1       -0.3311
     52 C         140.7208  135.8137  153.2561 C.3     1  UNL1        0.1194
     53 C         139.4872  136.0894  152.4486 C.3     1  UNL1        0.0322
     54 C         141.0605  134.4068  153.6499 C.3     1  UNL1        0.0482
     55 C         142.2942  134.1310  154.4574 C.3     1  UNL1        0.0921
     56 C         143.1881  135.2623  154.8713 C.3     1  UNL1        0.1815
     57 O         144.4218  134.9866  155.6788 O.3     1  UNL1       -0.3783
     58 H         144.4926  134.0337  155.8458 H       1  UNL1        0.2106
     59 N         142.6339  132.7240  154.8512 N.3     1  UNL1       -0.2692
     60 C         142.5036  132.2934  156.2820 C.3     1  UNL1        0.0897
     61 C         143.1040  131.7477  153.8139 C.3     1  UNL1        0.0897
@<TRIPOS>BOND
     1    47    48    1
     2     1    48    1
     3     1     2    1
     4     2     3    1
     5     3     4    2
     6     3     5    1
     7     5     6    1
     8     5     7    1
     9     7     8    2
    10     7     9    1
    11     9    10    1
    12     9    11    1
    13    11    49    1
    14    50    49    1
    15    50    51    1
    16    51    52    1
    17    52    53    1
    18    52    54    1
    19    54    55    1
    20    55    59    1
    21    59    60    1
    22    59    61    1
    23    55    56    1
    24    56    57    1
    25    11    12    1
    26    12    13    1
    27    12    14    1
    28    12    15    1
    29    15    16    1
    30    16    17    1
    31    16    18    1
    32    18    19    2
    33    18    20    1
    34    20    21    1
    35    20    22    1
    36    22    23    1
    37    23    30    1
    38    30    31    1
    39    31    32    1
    40    32    34    1
    41    34    35    1
    42    35    36   ar
    43    36    37    1
    44    36    38   ar
    45    38    39   ar
    46    39    40   ar
    47    40    41   ar
    48    41    42   ar
    49    42    43   ar
    50    43    44   ar
    51    44    45   ar
    52    32    33    1
    53    23    24   am
    54    24    25    2
    55    24    26    1
    56    26    27    1
    57    27    28    1
    58    27     1    1
    59    56    50    1
    60    27    22    1
    61    33    30    1
    62    45    35   ar
    63    45    40   ar
    64    57    58    1
    65    14    29    1
    66    37    46    1
@<TRIPOS>MOLECULE
*****
 61 66 0 0 0
SMALL
GASTEIGER

@<TRIPOS>ATOM
      1 C         141.4137  142.2350  155.1917 C.3     1  UNL1        0.2066
      2 O         140.9330  143.5566  155.7136 O.3     1  UNL1       -0.4483
      3 C         140.5120  144.5121  156.7906 C.2     1  UNL1        0.3235
      4 O         140.1904  145.7599  156.0227 O.2     1  UNL1       -0.2496
      5 C         140.2343  144.9123  158.2092 C.3     1  UNL1        0.1563
      6 C         139.7890  146.3381  158.0728 C.3     1  UNL1        0.0196
      7 C         140.1546  144.6779  159.6886 C.2     1  UNL1        0.1629
      8 O         139.6739  145.9995  160.2105 O.2     1  UNL1       -0.2954
      9 C         140.2889  143.8554  160.9358 C.3     1  UNL1        0.0877
     10 C         139.8680  144.8109  162.0128 C.3     1  UNL1        0.0104
     11 C         140.6106  142.6076  161.7037 C.3     1  UNL1        0.1490
     12 C         141.0559  141.1817  161.8402 C.3     1  UNL1        0.1141
     13 C         140.7225  141.7819  163.1739 C.3     1  UNL1        0.0318
     14 O         141.2576  140.1944  162.9512 O.3     1  UNL1       -0.3843
     15 C         141.5366  139.8602  161.3183 C.3     1  UNL1        0.0367
     16 C         141.9575  138.9047  160.2414 C.3     1  UNL1        0.0601
     17 C         142.2792  137.6569  161.0093 C.3     1  UNL1        0.0078
     18 C         142.2353  138.5045  158.8227 C.2     1  UNL1        0.1516
     19 O         142.6806  137.0786  158.9591 O.2     1  UNL1       -0.2960
     20 C         142.3150  138.7388  157.3433 C.3     1  UNL1        0.0794
     21 C         142.7957  137.4173  156.8214 C.3     1  UNL1        0.0096
     22 C         142.1806  139.5614  156.0961 C.3     1  UNL1        0.1254
     23 N         142.6209  138.5145  155.1161 N.am    1  UNL1       -0.2426
     24 C         142.5713  139.1153  153.7425 C.2     1  UNL1        0.4049
     25 O         142.9296  138.4200  152.4626 O.2     1  UNL1       -0.2262
     26 O         142.1004  140.5334  153.8737 O.3     1  UNL1       -0.4365
     27 C         141.8590  140.8091  155.3282 C.3     1  UNL1        0.1908
     28 C         141.7041  141.6832  154.1190 C.3     1  UNL1        0.0493
     29 H         141.0345  140.6108  163.7984 H       1  UNL1        0.2103
     30 C         143.0375  137.1130  155.4509 C.3     1  UNL1        0.1105
     31 C         144.3160  136.3346  155.3534 C.3     1  UNL1        0.0939
     32 N         143.6267  135.1309  155.9244 N.3     1  UNL1       -0.2659
     33 C         142.3482  135.9093  156.0219 C.3     1  UNL1        0.0939
     34 C         144.0434  133.7294  156.2592 C.3     1  UNL1        0.1039
     35 C         143.3041  132.5656  155.6684 C.ar    1  UNL1        0.0482
     36 C         142.5651  132.7262  154.3729 C.ar    1  UNL1        0.1515
     37 O         142.5653  134.0504  153.6685 O.3     1  UNL1       -0.5042
     38 C         141.8257  131.5625  153.7821 C.ar    1  UNL1        0.1351
     39 N         141.8255  130.2382  154.4866 N.ar    1  UNL1       -0.2392
     40 C         142.5646  130.0777  155.7820 C.ar    1  UNL1        0.0989
     41 C         142.5643  128.7534  156.4865 C.ar    1  UNL1        0.0222
     42 C         143.3034  128.5929  157.7818 C.ar    1  UNL1        0.0222
     43 C         144.0427  129.7567  158.3727 C.ar    1  UNL1        0.0989
     44 N         144.0430  131.0809  157.6683 N.ar    1  UNL1       -0.2425
     45 C         143.3039  131.2414  156.3728 C.ar    1  UNL1        0.0992
     46 H         143.0271  134.7773  154.0376 H       1  UNL1        0.2922
     47 C         142.1540  143.7079  153.1836 C.3     1  UNL1        0.0040
     48 C         141.4933  142.4694  153.7123 C.3     1  UNL1        0.0474
     49 O         140.3328  143.0078  163.1224 O.3     1  UNL1       -0.3283
     50 C         141.3504  142.7378  164.1908 C.3     1  UNL1        0.2643
     51 O         142.8130  142.7773  163.8606 O.3     1  UNL1       -0.3311
     52 C         143.8307  142.5073  164.9290 C.3     1  UNL1        0.1194
     53 C         145.2934  142.5468  164.5989 C.3     1  UNL1        0.0322
     54 C         143.3857  142.1978  166.3277 C.3     1  UNL1        0.0482
     55 C         141.9230  142.1583  166.6579 C.3     1  UNL1        0.0921
     56 C         140.9054  142.4283  165.5894 C.3     1  UNL1        0.1815
     57 O         139.4426  142.3888  165.9196 O.3     1  UNL1       -0.3783
     58 H         139.3289  142.1763  166.8592 H       1  UNL1        0.2106
     59 N         141.4780  141.8488  168.0565 N.3     1  UNL1       -0.2692
     60 C         141.1821  140.4329  168.4534 C.3     1  UNL1        0.0897
     61 C         141.3289  142.9553  169.0582 C.3     1  UNL1        0.0897
@<TRIPOS>BOND
     1    47    48    1
     2     1    48    1
     3     1     2    1
     4     2     3    1
     5     3     4    2
     6     3     5    1
     7     5     6    1
     8     5     7    1
     9     7     8    2
    10     7     9    1
    11     9    10    1
    12     9    11    1
    13    11    49    1
    14    50    49    1
    15    50    51    1
    16    51    52    1
    17    52    53    1
    18    52    54    1
    19    54    55    1
    20    55    59    1
    21    59    60    1
    22    59    61    1
    23    55    56    1
    24    56    57    1
    25    11    12    1
    26    12    13    1
    27    12    14    1
    28    12    15    1
    29    15    16    1
    30    16    17    1
    31    16    18    1
    32    18    19    2
    33    18    20    1
    34    20    21    1
    35    20    22    1
    36    22    23    1
    37    23    30    1
    38    30    31    1
    39    31    32    1
    40    32    34    1
    41    34    35    1
    42    35    36   ar
    43    36    37    1
    44    36    38   ar
    45    38    39   ar
    46    39    40   ar
    47    40    41   ar
    48    41    42   ar
    49    42    43   ar
    50    43    44   ar
    51    44    45   ar
    52    32    33    1
    53    23    24   am
    54    24    25    2
    55    24    26    1
    56    26    27    1
    57    27    28    1
    58    27     1    1
    59    56    50    1
    60    27    22    1
    61    33    30    1
    62    45    35   ar
    63    45    40   ar
    64    57    58    1
    65    14    29    1
    66    37    46    1
@<TRIPOS>MOLECULE
*****
 61 66 0 0 0
SMALL
GASTEIGER

@<TRIPOS>ATOM
      1 C         142.3042  140.3384  157.4790 C.3     1  UNL1        0.2066
      2 O         142.8263  139.3044  158.4321 O.3     1  UNL1       -0.4483
      3 C         143.1741  138.7713  159.7904 C.2     1  UNL1        0.3235
      4 O         143.7207  137.4084  159.4841 O.2     1  UNL1       -0.2496
      5 C         143.2785  138.8448  161.2848 C.3     1  UNL1        0.1563
      6 C         143.8716  137.5147  161.6438 C.3     1  UNL1        0.0196
      7 C         143.1191  139.5102  162.6197 C.2     1  UNL1        0.1629
      8 O         143.6412  138.4762  163.5726 O.2     1  UNL1       -0.2954
      9 C         142.7272  140.6359  163.5304 C.3     1  UNL1        0.0877
     10 C         143.0750  140.1028  164.8886 C.3     1  UNL1        0.0104
     11 C         142.1806  141.9988  163.8366 C.3     1  UNL1        0.1490
     12 C         141.5875  143.3290  163.4777 C.3     1  UNL1        0.1141
     13 C         141.7779  143.1957  164.9595 C.3     1  UNL1        0.0318
     14 O         141.1335  144.5618  164.2015 O.3     1  UNL1       -0.3843
     15 C         141.0653  144.3630  162.5246 C.3     1  UNL1        0.0367
     16 C         140.7176  144.8961  161.1665 C.3     1  UNL1        0.0601
     17 C         140.1710  146.2590  161.4727 C.3     1  UNL1        0.0078
     18 C         140.6131  144.8226  159.6719 C.2     1  UNL1        0.1516
     19 O         140.0200  146.1528  159.3129 O.2     1  UNL1       -0.2960
     20 C         140.7726  144.1572  158.3370 C.3     1  UNL1        0.0794
     21 C         140.2505  145.1912  157.3841 C.3     1  UNL1        0.0096
     22 C         141.1645  143.0315  157.4264 C.3     1  UNL1        0.1254
     23 N         140.7750  143.6768  156.1295 N.am    1  UNL1       -0.2426
     24 C         141.0809  142.7128  155.0217 C.2     1  UNL1        0.4049
     25 O         140.8489  142.9485  153.5586 O.2     1  UNL1       -0.2262
     26 O         141.6594  141.4717  155.6340 O.3     1  UNL1       -0.4365
     27 C         141.7111  141.6686  157.1201 C.3     1  UNL1        0.1908
     28 C         142.1225  140.5080  156.2635 C.3     1  UNL1        0.0493
     29 H         141.2690  144.4454  165.1549 H       1  UNL1        0.2103
     30 C         140.1834  145.0458  155.9686 C.3     1  UNL1        0.1105
     31 C         138.8278  145.5804  155.6132 C.3     1  UNL1        0.0939
     32 N         139.3469  146.9819  155.7411 N.3     1  UNL1       -0.2659
     33 C         140.7026  146.4473  156.0965 C.3     1  UNL1        0.0939
     34 C         138.7553  148.3509  155.5802 C.3     1  UNL1        0.1039
     35 C         139.2458  149.2566  154.4898 C.ar    1  UNL1        0.0482
     36 C         139.8911  148.6762  153.2663 C.ar    1  UNL1        0.1515
     37 O         140.0457  147.1902  153.1333 O.3     1  UNL1       -0.5042
     38 C         140.3816  149.5819  152.1759 C.ar    1  UNL1        0.1351
     39 N         140.2270  151.0680  152.3089 N.ar    1  UNL1       -0.2392
     40 C         139.5818  151.6483  153.5324 C.ar    1  UNL1        0.0989
     41 C         139.4272  153.1344  153.6654 C.ar    1  UNL1        0.0222
     42 C         138.7819  153.7148  154.8888 C.ar    1  UNL1        0.0222
     43 C         138.2913  152.8090  155.9793 C.ar    1  UNL1        0.0989
     44 N         138.4460  151.3230  155.8463 N.ar    1  UNL1       -0.2425
     45 C         139.0912  150.7426  154.6228 C.ar    1  UNL1        0.0992
     46 H         139.7393  146.6245  153.8144 H       1  UNL1        0.2922
     47 C         143.7828  139.0721  155.7586 C.3     1  UNL1        0.0040
     48 C         142.4637  139.6729  156.1443 C.3     1  UNL1        0.0474
     49 O         142.2851  142.0723  165.3311 O.3     1  UNL1       -0.3283
     50 C         141.2223  141.4518  166.1886 C.3     1  UNL1        0.2643
     51 O         140.1607  140.5950  165.5650 O.3     1  UNL1       -0.3311
     52 C         139.0979  139.9745  166.4225 C.3     1  UNL1        0.1194
     53 C         138.0363  139.1177  165.7989 C.3     1  UNL1        0.0322
     54 C         139.0966  140.2108  167.9038 C.3     1  UNL1        0.0482
     55 C         140.1582  141.0676  168.5276 C.3     1  UNL1        0.0921
     56 C         141.2210  141.6881  167.6699 C.3     1  UNL1        0.1815
     57 O         142.2826  142.5449  168.2937 O.3     1  UNL1       -0.3783
     58 H         142.1369  142.5943  169.2514 H       1  UNL1        0.2106
     59 N         140.1569  141.3039  170.0088 N.3     1  UNL1       -0.2692
     60 C         139.6902  142.6193  170.5581 C.3     1  UNL1        0.0897
     61 C         140.6223  140.2246  170.9408 C.3     1  UNL1        0.0897
@<TRIPOS>BOND
     1    47    48    1
     2     1    48    1
     3     1     2    1
     4     2     3    1
     5     3     4    2
     6     3     5    1
     7     5     6    1
     8     5     7    1
     9     7     8    2
    10     7     9    1
    11     9    10    1
    12     9    11    1
    13    11    49    1
    14    50    49    1
    15    50    51    1
    16    51    52    1
    17    52    53    1
    18    52    54    1
    19    54    55    1
    20    55    59    1
    21    59    60    1
    22    59    61    1
    23    55    56    1
    24    56    57    1
    25    11    12    1
    26    12    13    1
    27    12    14    1
    28    12    15    1
    29    15    16    1
    30    16    17    1
    31    16    18    1
    32    18    19    2
    33    18    20    1
    34    20    21    1
    35    20    22    1
    36    22    23    1
    37    23    30    1
    38    30    31    1
    39    31    32    1
    40    32    34    1
    41    34    35    1
    42    35    36   ar
    43    36    37    1
    44    36    38   ar
    45    38    39   ar
    46    39    40   ar
    47    40    41   ar
    48    41    42   ar
    49    42    43   ar
    50    43    44   ar
    51    44    45   ar
    52    32    33    1
    53    23    24   am
    54    24    25    2
    55    24    26    1
    56    26    27    1
    57    27    28    1
    58    27     1    1
    59    56    50    1
    60    27    22    1
    61    33    30    1
    62    45    35   ar
    63    45    40   ar
    64    57    58    1
    65    14    29    1
    66    37    46    1
@<TRIPOS>MOLECULE
*****
 61 66 0 0 0
SMALL
GASTEIGER

@<TRIPOS>ATOM
      1 C         140.8526  137.8600  155.8164 C.3     1  UNL1        0.2066
      2 O         140.0839  138.3110  154.6098 O.3     1  UNL1       -0.4483
      3 C         139.3668  139.3213  153.7641 C.2     1  UNL1        0.3235
      4 O         138.9317  138.5142  152.5770 O.2     1  UNL1       -0.2496
      5 C         138.8434  140.6906  153.4468 C.3     1  UNL1        0.1563
      6 C         138.1754  140.4931  152.1184 C.3     1  UNL1        0.0196
      7 C         138.6173  142.1480  153.7205 C.2     1  UNL1        0.1629
      8 O         137.8486  142.5990  152.5140 O.2     1  UNL1       -0.2954
      9 C         138.7333  143.4047  154.5314 C.3     1  UNL1        0.0877
     10 C         138.0162  144.4149  153.6856 C.3     1  UNL1        0.0104
     11 C         139.1684  144.2117  155.7185 C.3     1  UNL1        0.1490
     12 C         139.8364  144.4094  157.0470 C.3     1  UNL1        0.1141
     13 C         139.2345  145.6867  156.5408 C.3     1  UNL1        0.0318
     14 O         140.0647  145.5403  158.0055 O.3     1  UNL1       -0.3843
     15 C         140.6051  143.9583  158.2535 C.3     1  UNL1        0.0367
     16 C         141.3221  142.9482  159.0992 C.3     1  UNL1        0.0601
     17 C         141.7572  143.7553  160.2864 C.3     1  UNL1        0.0078
     18 C         141.8456  141.5788  159.4166 C.2     1  UNL1        0.1516
     19 O         142.5136  141.7763  160.7450 O.2     1  UNL1       -0.2960
     20 C         142.0717  140.1214  159.1428 C.3     1  UNL1        0.0794
     21 C         142.8403  139.6704  160.3493 C.3     1  UNL1        0.0096
     22 C         141.9557  138.8647  158.3320 C.3     1  UNL1        0.1254
     23 N         142.6952  137.9534  159.2661 N.am    1  UNL1       -0.2426
     24 C         142.7172  136.5831  158.6564 C.2     1  UNL1        0.4049
     25 O         143.3534  135.3627  159.2529 O.2     1  UNL1       -0.2262
     26 O         141.9912  136.6476  157.3453 O.3     1  UNL1       -0.4365
     27 C         141.5206  138.0577  157.1448 C.3     1  UNL1        0.1908
     28 C         141.3706  136.8358  156.2877 C.3     1  UNL1        0.0493
     29 H         139.6650  146.3500  157.6513 H       1  UNL1        0.2103
     30 C         143.3056  138.3438  160.5795 C.3     1  UNL1        0.1105
     31 C         142.9990  138.0552  162.0192 C.3     1  UNL1        0.0939
     32 N         144.1688  138.8960  162.4369 N.3     1  UNL1       -0.2659
     33 C         144.4754  139.1847  160.9973 C.3     1  UNL1        0.0939
     34 C         144.7791  139.2864  163.7504 C.3     1  UNL1        0.1039
     35 C         144.4166  140.5957  164.3863 C.ar    1  UNL1        0.0482
     36 C         145.2022  141.8311  164.0596 C.ar    1  UNL1        0.1515
     37 O         146.3501  141.7572  163.0970 O.3     1  UNL1       -0.5042
     38 C         144.8397  143.1404  164.6955 C.ar    1  UNL1        0.1351
     39 N         143.6917  143.2142  165.6581 N.ar    1  UNL1       -0.2392
     40 C         142.9062  141.9788  165.9848 C.ar    1  UNL1        0.0989
     41 C         141.7581  142.0527  166.9474 C.ar    1  UNL1        0.0222
     42 C         140.9726  140.8173  167.2741 C.ar    1  UNL1        0.0222
     43 C         141.3352  139.5080  166.6382 C.ar    1  UNL1        0.0989
     44 N         142.4831  139.4341  165.6756 N.ar    1  UNL1       -0.2425
     45 C         143.2687  140.6695  165.3489 C.ar    1  UNL1        0.0992
     46 H         146.5766  140.9394  162.6998 H       1  UNL1        0.2922
     47 C         141.5101  135.9541  154.1779 C.3     1  UNL1        0.0040
     48 C         141.0787  136.4027  155.5426 C.3     1  UNL1        0.0474
     49 O         138.6450  145.5812  155.4012 O.3     1  UNL1       -0.3283
     50 C         139.4937  146.5485  154.6306 C.3     1  UNL1        0.2643
     51 O         140.6150  146.0435  153.7717 O.3     1  UNL1       -0.3311
     52 C         141.4638  147.0108  153.0011 C.3     1  UNL1        0.1194
     53 C         142.5851  146.5058  152.1422 C.3     1  UNL1        0.0322
     54 C         141.1913  148.4832  153.0893 C.3     1  UNL1        0.0482
     55 C         140.0699  148.9883  153.9481 C.3     1  UNL1        0.0921
     56 C         139.2212  148.0209  154.7188 C.3     1  UNL1        0.1815
     57 O         138.0998  148.5259  155.5776 O.3     1  UNL1       -0.3783
     58 H         138.0609  149.4936  155.5225 H       1  UNL1        0.2106
     59 N         139.7974  150.4607  154.0364 N.3     1  UNL1       -0.2692
     60 C         139.9788  151.1802  155.3399 C.3     1  UNL1        0.0897
     61 C         139.3435  151.2135  152.8209 C.3     1  UNL1        0.0897
@<TRIPOS>BOND
     1    47    48    1
     2     1    48    1
     3     1     2    1
     4     2     3    1
     5     3     4    2
     6     3     5    1
     7     5     6    1
     8     5     7    1
     9     7     8    2
    10     7     9    1
    11     9    10    1
    12     9    11    1
    13    11    49    1
    14    50    49    1
    15    50    51    1
    16    51    52    1
    17    52    53    1
    18    52    54    1
    19    54    55    1
    20    55    59    1
    21    59    60    1
    22    59    61    1
    23    55    56    1
    24    56    57    1
    25    11    12    1
    26    12    13    1
    27    12    14    1
    28    12    15    1
    29    15    16    1
    30    16    17    1
    31    16    18    1
    32    18    19    2
    33    18    20    1
    34    20    21    1
    35    20    22    1
    36    22    23    1
    37    23    30    1
    38    30    31    1
    39    31    32    1
    40    32    34    1
    41    34    35    1
    42    35    36   ar
    43    36    37    1
    44    36    38   ar
    45    38    39   ar
    46    39    40   ar
    47    40    41   ar
    48    41    42   ar
    49    42    43   ar
    50    43    44   ar
    51    44    45   ar
    52    32    33    1
    53    23    24   am
    54    24    25    2
    55    24    26    1
    56    26    27    1
    57    27    28    1
    58    27     1    1
    59    56    50    1
    60    27    22    1
    61    33    30    1
    62    45    35   ar
    63    45    40   ar
    64    57    58    1
    65    14    29    1
    66    37    46    1
@<TRIPOS>MOLECULE
*****
 61 66 0 0 0
SMALL
GASTEIGER

@<TRIPOS>ATOM
      1 C         141.7780  141.1781  154.5613 C.3     1  UNL1        0.2066
      2 O         141.6690  142.6154  154.9762 O.3     1  UNL1       -0.4483
      3 C         141.6505  143.7370  155.9721 C.2     1  UNL1        0.3235
      4 O         141.4387  144.9458  155.1096 O.2     1  UNL1       -0.2496
      5 C         141.7262  144.3205  157.3518 C.3     1  UNL1        0.1563
      6 C         141.5482  145.7890  157.1035 C.3     1  UNL1        0.0196
      7 C         141.8811  144.2505  158.8422 C.2     1  UNL1        0.1629
      8 O         141.7721  145.6878  159.2570 O.2     1  UNL1       -0.2954
      9 C         142.0846  143.5408  160.1479 C.3     1  UNL1        0.0877
     10 C         142.0661  144.6623  161.1438 C.3     1  UNL1        0.0104
     11 C         142.2964  142.3319  161.0104 C.3     1  UNL1        0.1490
     12 C         142.4744  140.8634  161.2589 C.3     1  UNL1        0.1141
     13 C         142.5195  141.6451  162.5383 C.3     1  UNL1        0.0318
     14 O         142.6854  139.9660  162.4421 O.3     1  UNL1       -0.3843
     15 C         142.5835  139.4260  160.8440 C.3     1  UNL1        0.0367
     16 C         142.6020  138.3045  159.8482 C.3     1  UNL1        0.0601
     17 C         142.8137  137.0957  160.7107 C.3     1  UNL1        0.0078
     18 C         142.5263  137.7210  158.4684 C.2     1  UNL1        0.1516
     19 O         142.7043  136.2525  158.7167 O.2     1  UNL1       -0.2960
     20 C         142.3713  137.7909  156.9780 C.3     1  UNL1        0.0794
     21 C         142.4804  136.3536  156.5632 C.3     1  UNL1        0.0096
     22 C         142.1678  138.5007  155.6723 C.3     1  UNL1        0.1254
     23 N         142.2053  137.2955  154.7801 N.am    1  UNL1       -0.2426
     24 C         142.0168  137.7594  153.3661 C.2     1  UNL1        0.4049
     25 O         141.9874  136.8850  152.1477 O.2     1  UNL1       -0.2262
     26 O         141.8627  139.2514  153.3845 O.3     1  UNL1       -0.4365
     27 C         141.9561  139.7095  154.8098 C.3     1  UNL1        0.1908
     28 C         141.7499  140.4774  153.5378 C.3     1  UNL1        0.0493
     29 H         142.7099  140.4993  163.2520 H       1  UNL1        0.2103
     30 C         142.3976  135.8756  155.2239 C.3     1  UNL1        0.1105
     31 C         141.4836  134.7231  155.5175 C.3     1  UNL1        0.0939
     32 N         142.6696  133.8676  155.8515 N.3     1  UNL1       -0.2659
     33 C         143.5836  135.0201  155.5579 C.3     1  UNL1        0.0939
     34 C         142.8618  132.4477  156.2953 C.3     1  UNL1        0.1039
     35 C         143.1220  131.3735  155.2812 C.ar    1  UNL1        0.0482
     36 C         144.5014  130.8041  155.1290 C.ar    1  UNL1        0.1515
     37 O         145.6205  131.3088  155.9909 O.3     1  UNL1       -0.5042
     38 C         144.7617  129.7300  154.1149 C.ar    1  UNL1        0.1351
     39 N         143.6426  129.2252  153.2530 N.ar    1  UNL1       -0.2392
     40 C         142.2633  129.7947  153.4052 C.ar    1  UNL1        0.0989
     41 C         141.1442  129.2899  152.5433 C.ar    1  UNL1        0.0222
     42 C         139.7649  129.8593  152.6955 C.ar    1  UNL1        0.0222
     43 C         139.5046  130.9335  153.7096 C.ar    1  UNL1        0.0989
     44 N         140.6236  131.4382  154.5715 N.ar    1  UNL1       -0.2425
     45 C         142.0030  130.8688  154.4193 C.ar    1  UNL1        0.0992
     46 H         145.4579  131.9798  156.6244 H       1  UNL1        0.2922
     47 C         140.4409  141.9505  152.4721 C.3     1  UNL1        0.0040
     48 C         141.6231  141.2481  153.0710 C.3     1  UNL1        0.0474
     49 O         142.3721  142.9155  162.3902 O.3     1  UNL1       -0.3283
     50 C         141.3141  142.5884  163.4019 C.3     1  UNL1        0.2643
     51 O         139.8889  142.4155  162.9675 O.3     1  UNL1       -0.3311
     52 C         138.8308  142.0884  163.9793 C.3     1  UNL1        0.1194
     53 C         137.4056  141.9154  163.5449 C.3     1  UNL1        0.0322
     54 C         139.1981  141.9342  165.4254 C.3     1  UNL1        0.0482
     55 C         140.6234  142.1072  165.8599 C.3     1  UNL1        0.0921
     56 C         141.6814  142.4343  164.8480 C.3     1  UNL1        0.1815
     57 O         143.1067  142.6072  165.2825 O.3     1  UNL1       -0.3783
     58 H         143.1708  142.4751  166.2413 H       1  UNL1        0.2106
     59 N         140.9906  141.9530  167.3060 N.3     1  UNL1       -0.2692
     60 C         140.6093  143.0153  168.2940 C.3     1  UNL1        0.0897
     61 C         141.7392  140.7366  167.7641 C.3     1  UNL1        0.0897
@<TRIPOS>BOND
     1    47    48    1
     2     1    48    1
     3     1     2    1
     4     2     3    1
     5     3     4    2
     6     3     5    1
     7     5     6    1
     8     5     7    1
     9     7     8    2
    10     7     9    1
    11     9    10    1
    12     9    11    1
    13    11    49    1
    14    50    49    1
    15    50    51    1
    16    51    52    1
    17    52    53    1
    18    52    54    1
    19    54    55    1
    20    55    59    1
    21    59    60    1
    22    59    61    1
    23    55    56    1
    24    56    57    1
    25    11    12    1
    26    12    13    1
    27    12    14    1
    28    12    15    1
    29    15    16    1
    30    16    17    1
    31    16    18    1
    32    18    19    2
    33    18    20    1
    34    20    21    1
    35    20    22    1
    36    22    23    1
    37    23    30    1
    38    30    31    1
    39    31    32    1
    40    32    34    1
    41    34    35    1
    42    35    36   ar
    43    36    37    1
    44    36    38   ar
    45    38    39   ar
    46    39    40   ar
    47    40    41   ar
    48    41    42   ar
    49    42    43   ar
    50    43    44   ar
    51    44    45   ar
    52    32    33    1
    53    23    24   am
    54    24    25    2
    55    24    26    1
    56    26    27    1
    57    27    28    1
    58    27     1    1
    59    56    50    1
    60    27    22    1
    61    33    30    1
    62    45    35   ar
    63    45    40   ar
    64    57    58    1
    65    14    29    1
    66    37    46    1
@<TRIPOS>MOLECULE
*****
 61 66 0 0 0
SMALL
GASTEIGER

@<TRIPOS>ATOM
      1 C         141.8640  139.9385  156.9489 C.3     1  UNL1        0.2066
      2 O         142.5024  138.9725  157.9025 O.3     1  UNL1       -0.4483
      3 C         143.0023  138.5303  159.2458 C.2     1  UNL1        0.3235
      4 O         143.5361  137.1564  158.9677 O.2     1  UNL1       -0.2496
      5 C         143.2646  138.6997  160.7129 C.3     1  UNL1        0.1563
      6 C         143.9151  137.4011  161.0877 C.3     1  UNL1        0.0196
      7 C         143.2374  139.4468  162.0133 C.2     1  UNL1        0.1629
      8 O         143.8758  138.4808  162.9668 O.2     1  UNL1       -0.2954
      9 C         142.9260  140.6240  162.8893 C.3     1  UNL1        0.0877
     10 C         143.4259  140.1818  164.2327 C.3     1  UNL1        0.0104
     11 C         142.3921  141.9979  163.1675 C.3     1  UNL1        0.1490
     12 C         141.7416  143.2965  162.7927 C.3     1  UNL1        0.1141
     13 C         142.0915  143.2596  164.2509 C.3     1  UNL1        0.0318
     14 O         141.3467  144.5681  163.4834 O.3     1  UNL1       -0.3843
     15 C         141.1031  144.2625  161.8392 C.3     1  UNL1        0.0367
     16 C         140.6032  144.7047  160.4959 C.3     1  UNL1        0.0601
     17 C         140.0694  146.0786  160.7741 C.3     1  UNL1        0.0078
     18 C         140.3410  144.5354  159.0288 C.2     1  UNL1        0.1516
     19 O         139.6904  145.8340  158.6539 O.2     1  UNL1       -0.2960
     20 C         140.3682  143.7883  157.7284 C.3     1  UNL1        0.0794
     21 C         139.7297  144.7543  156.7749 C.3     1  UNL1        0.0096
     22 C         140.6795  142.6111  156.8523 C.3     1  UNL1        0.1254
     23 N         140.1428  143.1687  155.5674 N.am    1  UNL1       -0.2426
     24 C         140.3449  142.1395  154.4951 C.2     1  UNL1        0.4049
     25 O         139.9540  142.2794  153.0538 O.2     1  UNL1       -0.2262
     26 O         141.0066  140.9457  155.1174 O.3     1  UNL1       -0.4365
     27 C         141.2134  141.2372  156.5742 C.3     1  UNL1        0.1908
     28 C         141.5506  140.0288  155.7518 C.3     1  UNL1        0.0493
     29 H         141.5852  144.5138  164.4220 H       1  UNL1        0.2103
     30 C         139.5143  144.5187  155.3866 C.3     1  UNL1        0.1105
     31 C         139.9580  145.8249  154.7977 C.3     1  UNL1        0.0939
     32 N         138.6255  146.4277  155.1309 N.3     1  UNL1       -0.2659
     33 C         138.1818  145.1215  155.7198 C.3     1  UNL1        0.0939
     34 C         137.9971  147.7777  154.9500 C.3     1  UNL1        0.1039
     35 C         138.8211  149.0185  155.1273 C.ar    1  UNL1        0.0482
     36 C         138.5710  149.9241  156.2968 C.ar    1  UNL1        0.1515
     37 O         137.4971  149.5888  157.2888 O.3     1  UNL1       -0.5042
     38 C         139.3950  151.1648  156.4741 C.ar    1  UNL1        0.1351
     39 N         140.4690  151.5001  155.4821 N.ar    1  UNL1       -0.2392
     40 C         140.7190  150.5945  154.3127 C.ar    1  UNL1        0.0989
     41 C         141.7930  150.9299  153.3207 C.ar    1  UNL1        0.0222
     42 C         142.0430  150.0243  152.1513 C.ar    1  UNL1        0.0222
     43 C         141.2190  148.7834  151.9739 C.ar    1  UNL1        0.0989
     44 N         140.1451  148.4482  152.9659 N.ar    1  UNL1       -0.2425
     45 C         139.8950  149.3538  154.1353 C.ar    1  UNL1        0.0992
     46 H         136.9824  148.8137  157.1780 H       1  UNL1        0.2922
     47 C         141.3913  137.7786  155.5847 C.3     1  UNL1        0.0040
     48 C         141.8912  139.1914  155.6486 C.3     1  UNL1        0.0474
     49 O         142.6544  142.1672  164.6346 O.3     1  UNL1       -0.3283
     50 C         141.6608  141.6606  165.6375 C.3     1  UNL1        0.2643
     51 O         140.4046  140.9849  165.1733 O.3     1  UNL1       -0.3311
     52 C         139.4108  140.4783  166.1762 C.3     1  UNL1        0.1194
     53 C         138.1547  139.8026  165.7121 C.3     1  UNL1        0.0322
     54 C         139.6733  140.6473  167.6434 C.3     1  UNL1        0.0482
     55 C         140.9295  141.3230  168.1077 C.3     1  UNL1        0.0921
     56 C         141.9232  141.8297  167.1047 C.3     1  UNL1        0.1815
     57 O         143.1794  142.5054  167.5689 O.3     1  UNL1       -0.3783
     58 H         143.1927  142.5322  168.5385 H       1  UNL1        0.2106
     59 N         141.1919  141.4921  169.5748 N.3     1  UNL1       -0.2692
     60 C         140.4362  142.5244  170.3578 C.3     1  UNL1        0.0897
     61 C         142.2100  140.6288  170.2589 C.3     1  UNL1        0.0897
@<TRIPOS>BOND
     1    47    48    1
     2     1    48    1
     3     1     2    1
     4     2     3    1
     5     3     4    2
     6     3     5    1
     7     5     6    1
     8     5     7    1
     9     7     8    2
    10     7     9    1
    11     9    10    1
    12     9    11    1
    13    11    49    1
    14    50    49    1
    15    50    51    1
    16    51    52    1
    17    52    53    1
    18    52    54    1
    19    54    55    1
    20    55    59    1
    21    59    60    1
    22    59    61    1
    23    55    56    1
    24    56    57    1
    25    11    12    1
    26    12    13    1
    27    12    14    1
    28    12    15    1
    29    15    16    1
    30    16    17    1
    31    16    18    1
    32    18    19    2
    33    18    20    1
    34    20    21    1
    35    20    22    1
    36    22    23    1
    37    23    30    1
    38    30    31    1
    39    31    32    1
    40    32    34    1
    41    34    35    1
    42    35    36   ar
    43    36    37    1
    44    36    38   ar
    45    38    39   ar
    46    39    40   ar
    47    40    41   ar
    48    41    42   ar
    49    42    43   ar
    50    43    44   ar
    51    44    45   ar
    52    32    33    1
    53    23    24   am
    54    24    25    2
    55    24    26    1
    56    26    27    1
    57    27    28    1
    58    27     1    1
    59    56    50    1
    60    27    22    1
    61    33    30    1
    62    45    35   ar
    63    45    40   ar
    64    57    58    1
    65    14    29    1
    66    37    46    1
@<TRIPOS>MOLECULE
*****
 61 66 0 0 0
SMALL
GASTEIGER

@<TRIPOS>ATOM
      1 C         140.6095  144.9815  159.3286 C.3     1  UNL1        0.2066
      2 O         140.8739  145.2465  157.8761 O.3     1  UNL1       -0.4483
      3 C         141.3323  144.8770  156.4965 C.2     1  UNL1        0.3235
      4 O         141.1006  146.1385  155.7187 O.2     1  UNL1       -0.2496
      5 C         141.8938  143.9461  155.4631 C.3     1  UNL1        0.1563
      6 C         141.9120  144.7933  154.2253 C.3     1  UNL1        0.0196
      7 C         142.4472  142.6382  154.9803 C.2     1  UNL1        0.1629
      8 O         142.7117  142.9033  153.5279 O.2     1  UNL1       -0.2954
      9 C         142.8829  141.2122  155.1442 C.3     1  UNL1        0.0877
     10 C         143.3413  140.8427  153.7645 C.3     1  UNL1        0.0104
     11 C         143.1146  139.9507  155.9219 C.3     1  UNL1        0.1490
     12 C         143.0965  139.1034  157.1596 C.3     1  UNL1        0.1141
     13 C         143.6354  138.3442  155.9836 C.3     1  UNL1        0.0318
     14 O         143.4721  137.7015  157.5380 O.3     1  UNL1       -0.3843
     15 C         142.8320  138.8384  158.6121 C.3     1  UNL1        0.0367
     16 C         142.3737  139.2078  159.9917 C.3     1  UNL1        0.0601
     17 C         142.6054  137.9463  160.7695 C.3     1  UNL1        0.0078
     18 C         141.8122  140.1388  161.0252 C.2     1  UNL1        0.1516
     19 O         141.7940  139.2916  162.2629 O.2     1  UNL1       -0.2960
     20 C         141.2587  141.4467  161.5079 C.3     1  UNL1        0.0794
     21 C         140.9943  141.1816  162.9604 C.3     1  UNL1        0.0096
     22 C         140.8230  142.8727  161.3441 C.3     1  UNL1        0.1254
     23 N         140.3972  143.1172  162.7615 N.am    1  UNL1       -0.2426
     24 C         139.9023  144.5298  162.8597 C.2     1  UNL1        0.4049
     25 O         139.3792  145.1967  164.0973 O.2     1  UNL1       -0.2262
     26 O         140.0223  145.1583  161.5031 O.3     1  UNL1       -0.4365
     27 C         140.5913  144.1342  160.5664 C.3     1  UNL1        0.1908
     28 C         140.1726  145.5564  160.3376 C.3     1  UNL1        0.0493
     29 H         143.8161  137.2374  156.7588 H       1  UNL1        0.2103
     30 C         140.4559  142.1235  163.8836 C.3     1  UNL1        0.1105
     31 C         141.5023  141.6995  164.8712 C.3     1  UNL1        0.0939
     32 N         140.5391  140.7182  165.4705 N.3     1  UNL1       -0.2659
     33 C         139.4927  141.1422  164.4829 C.3     1  UNL1        0.0939
     34 C         140.5979  139.7245  166.5926 C.3     1  UNL1        0.1039
     35 C         140.3199  140.1644  167.9994 C.ar    1  UNL1        0.0482
     36 C         139.0384  139.7666  168.6702 C.ar    1  UNL1        0.1515
     37 O         138.0352  138.9290  167.9342 O.3     1  UNL1       -0.5042
     38 C         138.7604  140.2066  170.0770 C.ar    1  UNL1        0.1351
     39 N         139.7637  141.0442  170.8130 N.ar    1  UNL1       -0.2392
     40 C         141.0450  141.4420  170.1423 C.ar    1  UNL1        0.0989
     41 C         142.0483  142.2796  170.8784 C.ar    1  UNL1        0.0222
     42 C         143.3296  142.6774  170.2076 C.ar    1  UNL1        0.0222
     43 C         143.6077  142.2374  168.8007 C.ar    1  UNL1        0.0989
     44 N         142.6045  141.3998  168.0647 N.ar    1  UNL1       -0.2425
     45 C         141.3231  141.0020  168.7355 C.ar    1  UNL1        0.0992
     46 H         138.2089  138.6542  167.0554 H       1  UNL1        0.2922
     47 C         139.2868  147.1705  158.8723 C.3     1  UNL1        0.0040
     48 C         140.0561  146.2894  159.8113 C.3     1  UNL1        0.0474
     49 O         143.6761  139.0197  154.8884 O.3     1  UNL1       -0.3283
     50 C         143.0600  137.6677  154.6830 C.3     1  UNL1        0.2643
     51 O         143.7304  136.4458  155.2374 O.3     1  UNL1       -0.3311
     52 C         143.1142  135.0937  155.0319 C.3     1  UNL1        0.1194
     53 C         143.7847  133.8718  155.5863 C.3     1  UNL1        0.0322
     54 C         141.8275  134.9635  154.2721 C.3     1  UNL1        0.0482
     55 C         141.1569  136.1855  153.7177 C.3     1  UNL1        0.0921
     56 C         141.7732  137.5376  153.9232 C.3     1  UNL1        0.1815
     57 O         141.1026  138.7595  153.3687 O.3     1  UNL1       -0.3783
     58 H         140.2883  138.5011  152.9095 H       1  UNL1        0.2106
     59 N         139.8702  136.0553  152.9578 N.3     1  UNL1       -0.2692
     60 C         138.7634  137.0424  153.1824 C.3     1  UNL1        0.0897
     61 C         139.6903  134.9379  151.9734 C.3     1  UNL1        0.0897
@<TRIPOS>BOND
     1    47    48    1
     2     1    48    1
     3     1     2    1
     4     2     3    1
     5     3     4    2
     6     3     5    1
     7     5     6    1
     8     5     7    1
     9     7     8    2
    10     7     9    1
    11     9    10    1
    12     9    11    1
    13    11    49    1
    14    50    49    1
    15    50    51    1
    16    51    52    1
    17    52    53    1
    18    52    54    1
    19    54    55    1
    20    55    59    1
    21    59    60    1
    22    59    61    1
    23    55    56    1
    24    56    57    1
    25    11    12    1
    26    12    13    1
    27    12    14    1
    28    12    15    1
    29    15    16    1
    30    16    17    1
    31    16    18    1
    32    18    19    2
    33    18    20    1
    34    20    21    1
    35    20    22    1
    36    22    23    1
    37    23    30    1
    38    30    31    1
    39    31    32    1
    40    32    34    1
    41    34    35    1
    42    35    36   ar
    43    36    37    1
    44    36    38   ar
    45    38    39   ar
    46    39    40   ar
    47    40    41   ar
    48    41    42   ar
    49    42    43   ar
    50    43    44   ar
    51    44    45   ar
    52    32    33    1
    53    23    24   am
    54    24    25    2
    55    24    26    1
    56    26    27    1
    57    27    28    1
    58    27     1    1
    59    56    50    1
    60    27    22    1
    61    33    30    1
    62    45    35   ar
    63    45    40   ar
    64    57    58    1
    65    14    29    1
    66    37    46    1
