@<TRIPOS>MOLECULE
*****
 30 33 0 0 0
SMALL
GASTEIGER

@<TRIPOS>ATOM
      1 C         139.5380  139.7330  167.0931 C.ar    1  UNL1        0.0206
      2 C         138.4359  138.7481  166.8374 C.ar    1  UNL1        0.0013
      3 C         138.1744  138.2604  165.4431 C.ar    1  UNL1       -0.0045
      4 C         139.0151  138.7578  164.3046 C.ar    1  UNL1       -0.0247
      5 C         140.1170  139.7426  164.5604 C.ar    1  UNL1       -0.0246
      6 C         140.3785  140.2303  165.9546 C.ar    1  UNL1       -0.0029
      7 C         141.0656  140.3611  163.5766 C.3     1  UNL1        0.0433
      8 C         141.1463  140.1473  162.0941 C.3     1  UNL1        0.0768
      9 N         140.2985  139.2624  161.2293 N.3     1  UNL1       -0.2720
     10 C         139.1605  138.3726  161.6333 C.3     1  UNL1        0.0768
     11 C         138.5893  138.1480  163.0020 C.3     1  UNL1        0.0433
     12 C         141.7953  142.0696  171.2555 C.3     1  UNL1        0.0754
     13 C         140.8369  141.2946  170.4006 C.ar    1  UNL1        0.1548
     14 C         140.9811  141.0310  168.9309 C.ar    1  UNL1        0.0580
     15 C         139.7994  140.2206  168.4873 C.ar    1  UNL1        0.1227
     16 N         138.9248  139.9835  169.6828 N.ar    1  UNL1       -0.0774
     17 O         139.5661  140.6472  170.8651 O.2     1  UNL1       -0.3578
     18 C         140.6329  139.2679  159.7670 C.3     1  UNL1        0.0730
     19 C         140.2056  140.4182  158.9043 C.3     1  UNL1        0.0294
     20 C         138.8050  140.9469  158.9987 C.3     1  UNL1        0.0666
     21 S         138.5509  142.2922  159.6115 S.3     1  UNL1       -0.0756
     22 C         138.4227  142.4261  161.1000 C.ar    1  UNL1        0.1930
     23 N         137.4852  141.6508  161.9775 N.ar    1  UNL1       -0.1224
     24 N         137.6925  142.1044  163.3922 N.ar    1  UNL1       -0.1328
     25 C         138.7583  143.1600  163.3890 C.ar    1  UNL1        0.1432
     26 N         139.2095  143.3588  161.9723 N.ar    1  UNL1       -0.2918
     27 C         140.2627  144.3214  161.5093 C.3     1  UNL1        0.1337
     28 C         139.2810  143.8888  164.5913 C.3     1  UNL1        0.0588
     29 C         138.3854  144.8225  165.3503 C.3     1  UNL1        0.0080
     30 C         140.6992  143.6839  165.0346 C.3     1  UNL1        0.0080
@<TRIPOS>BOND
     1    12    13    1
     2    13    14   ar
     3    14    15   ar
     4    15     1    1
     5     1     2   ar
     6     2     3   ar
     7     3     4   ar
     8     4     5   ar
     9     5     6   ar
    10     5     7    1
    11     7     8    1
    12     8     9    1
    13     9    18    1
    14    18    19    1
    15    19    20    1
    16    20    21    1
    17    21    22    1
    18    22    23   ar
    19    23    24   ar
    20    24    25   ar
    21    25    28    1
    22    28    29    1
    23    28    30    1
    24    25    26   ar
    25    26    27    1
    26     9    10    1
    27    10    11    1
    28    15    16   ar
    29    16    17   ar
    30    17    13   ar
    31     6     1   ar
    32    26    22   ar
    33    11     4    1
@<TRIPOS>MOLECULE
*****
 30 33 0 0 0
SMALL
GASTEIGER

@<TRIPOS>ATOM
      1 C         141.4364  141.7953  168.5296 C.ar    1  UNL1        0.0206
      2 C         140.6868  140.6100  169.0618 C.ar    1  UNL1        0.0013
      3 C         139.7271  139.8706  168.1773 C.ar    1  UNL1       -0.0045
      4 C         139.5170  140.3166  166.7606 C.ar    1  UNL1       -0.0247
      5 C         140.2666  141.5018  166.2285 C.ar    1  UNL1       -0.0246
      6 C         141.2262  142.2412  167.1129 C.ar    1  UNL1       -0.0029
      7 C         140.2059  142.1084  164.8579 C.3     1  UNL1        0.0433
      8 C         139.3806  141.6794  163.6810 C.3     1  UNL1        0.0768
      9 N         138.4123  140.5380  163.5841 N.3     1  UNL1       -0.2720
     10 C         138.0300  139.5436  164.6400 C.3     1  UNL1        0.0768
     11 C         138.5216  139.4450  166.0537 C.3     1  UNL1        0.0433
     12 C         145.9027  143.5716  170.7152 C.3     1  UNL1        0.0754
     13 C         144.4490  143.3512  170.4188 C.ar    1  UNL1        0.1548
     14 C         143.8925  142.4494  169.3570 C.ar    1  UNL1        0.0580
     15 C         142.3960  142.5347  169.4141 C.ar    1  UNL1        0.1227
     16 N         142.0276  143.4891  170.5111 N.ar    1  UNL1       -0.0774
     17 O         143.2964  143.9937  171.1320 O.2     1  UNL1       -0.3578
     18 C         137.7369  140.3686  162.2555 C.3     1  UNL1        0.0730
     19 C         138.0426  139.1706  161.4060 C.3     1  UNL1        0.0294
     20 C         139.2022  139.2016  160.4550 C.3     1  UNL1        0.0666
     21 S         140.4088  138.3496  160.7155 S.3     1  UNL1       -0.0756
     22 C         140.9490  138.2203  162.1088 C.ar    1  UNL1        0.1930
     23 N         140.6700  137.0961  163.0619 N.ar    1  UNL1       -0.1224
     24 N         141.4116  137.3735  164.3359 N.ar    1  UNL1       -0.1328
     25 C         142.1490  138.6692  164.1702 C.ar    1  UNL1        0.1432
     26 N         141.8631  139.1926  162.7938 N.ar    1  UNL1       -0.2918
     27 C         142.3975  140.4648  162.2057 C.3     1  UNL1        0.1337
     28 C         143.0195  139.3263  165.2000 C.3     1  UNL1        0.0588
     29 C         142.9530  138.8829  166.6314 C.3     1  UNL1        0.0080
     30 C         143.9564  140.4266  164.7985 C.3     1  UNL1        0.0080
@<TRIPOS>BOND
     1    12    13    1
     2    13    14   ar
     3    14    15   ar
     4    15     1    1
     5     1     2   ar
     6     2     3   ar
     7     3     4   ar
     8     4     5   ar
     9     5     6   ar
    10     5     7    1
    11     7     8    1
    12     8     9    1
    13     9    18    1
    14    18    19    1
    15    19    20    1
    16    20    21    1
    17    21    22    1
    18    22    23   ar
    19    23    24   ar
    20    24    25   ar
    21    25    28    1
    22    28    29    1
    23    28    30    1
    24    25    26   ar
    25    26    27    1
    26     9    10    1
    27    10    11    1
    28    15    16   ar
    29    16    17   ar
    30    17    13   ar
    31     6     1   ar
    32    26    22   ar
    33    11     4    1
@<TRIPOS>MOLECULE
*****
 30 33 0 0 0
SMALL
GASTEIGER

@<TRIPOS>ATOM
      1 C         139.3324  139.7552  166.8520 C.ar    1  UNL1        0.0206
      2 C         138.4865  138.5606  166.5242 C.ar    1  UNL1        0.0013
      3 C         138.2151  138.2038  165.0927 C.ar    1  UNL1       -0.0045
      4 C         138.7897  139.0416  163.9891 C.ar    1  UNL1       -0.0247
      5 C         139.6354  140.2362  164.3169 C.ar    1  UNL1       -0.0246
      6 C         139.9068  140.5930  165.7483 C.ar    1  UNL1       -0.0029
      7 C         140.2997  141.1982  163.3769 C.3     1  UNL1        0.0433
      8 C         140.2820  141.2030  161.8770 C.3     1  UNL1        0.0768
      9 N         139.5959  140.2473  160.9467 N.3     1  UNL1       -0.2720
     10 C         138.7579  139.0504  161.2864 C.3     1  UNL1        0.0768
     11 C         138.3991  138.5139  162.6404 C.3     1  UNL1        0.0433
     12 C         141.7205  141.4960  171.2278 C.3     1  UNL1        0.0754
     13 C         140.7014  140.9121  170.2948 C.ar    1  UNL1        0.1548
     14 C         140.8638  140.7281  168.8150 C.ar    1  UNL1        0.0580
     15 C         139.6037  140.1120  168.2835 C.ar    1  UNL1        0.1227
     16 N         138.6625  139.9153  169.4347 N.ar    1  UNL1       -0.0774
     17 O         139.3409  140.4098  170.6778 O.2     1  UNL1       -0.3578
     18 C         139.7709  140.5250  159.4831 C.3     1  UNL1        0.0730
     19 C         141.0240  140.0910  158.7818 C.3     1  UNL1        0.0294
     20 C         141.5712  138.7128  159.0081 C.3     1  UNL1        0.0666
     21 S         142.7799  138.5189  159.8749 S.3     1  UNL1       -0.0756
     22 C         142.6212  138.3557  161.3575 C.ar    1  UNL1        0.1930
     23 N         141.7249  137.3687  162.0450 N.ar    1  UNL1       -0.1224
     24 N         141.8806  137.5539  163.5253 N.ar    1  UNL1       -0.1328
     25 C         142.8732  138.6553  163.7528 C.ar    1  UNL1        0.1432
     26 N         143.3309  139.1508  162.4130 N.ar    1  UNL1       -0.2918
     27 C         144.3240  140.2488  162.1712 C.3     1  UNL1        0.1337
     28 C         143.3282  139.1706  165.0860 C.3     1  UNL1        0.0588
     29 C         143.6305  138.2103  166.1979 C.3     1  UNL1        0.0080
     30 C         143.4810  140.6463  165.3073 C.3     1  UNL1        0.0080
@<TRIPOS>BOND
     1    12    13    1
     2    13    14   ar
     3    14    15   ar
     4    15     1    1
     5     1     2   ar
     6     2     3   ar
     7     3     4   ar
     8     4     5   ar
     9     5     6   ar
    10     5     7    1
    11     7     8    1
    12     8     9    1
    13     9    18    1
    14    18    19    1
    15    19    20    1
    16    20    21    1
    17    21    22    1
    18    22    23   ar
    19    23    24   ar
    20    24    25   ar
    21    25    28    1
    22    28    29    1
    23    28    30    1
    24    25    26   ar
    25    26    27    1
    26     9    10    1
    27    10    11    1
    28    15    16   ar
    29    16    17   ar
    30    17    13   ar
    31     6     1   ar
    32    26    22   ar
    33    11     4    1
@<TRIPOS>MOLECULE
*****
 30 33 0 0 0
SMALL
GASTEIGER

@<TRIPOS>ATOM
      1 C         142.9372  141.8913  166.6588 C.ar    1  UNL1        0.0206
      2 C         143.9341  142.7440  165.9313 C.ar    1  UNL1        0.0013
      3 C         144.4047  142.3464  164.5636 C.ar    1  UNL1       -0.0045
      4 C         143.8782  141.0961  163.9234 C.ar    1  UNL1       -0.0247
      5 C         142.8813  140.2436  164.6508 C.ar    1  UNL1       -0.0246
      6 C         142.4108  140.6411  166.0185 C.ar    1  UNL1       -0.0029
      7 C         142.2344  138.9682  164.1981 C.3     1  UNL1        0.0433
      8 C         142.4249  138.2304  162.9059 C.3     1  UNL1        0.0768
      9 N         143.3090  138.5858  161.7476 N.3     1  UNL1       -0.2720
     10 C         144.2213  139.7667  161.5951 C.3     1  UNL1        0.0768
     11 C         144.4746  140.8840  162.5635 C.3     1  UNL1        0.0433
     12 C         139.8154  142.9917  170.7727 C.3     1  UNL1        0.0754
     13 C         141.0318  142.7948  169.9174 C.ar    1  UNL1        0.1548
     14 C         141.0397  142.3510  168.4845 C.ar    1  UNL1        0.0580
     15 C         142.4667  142.2890  168.0264 C.ar    1  UNL1        0.1227
     16 N         143.3407  142.6945  169.1761 N.ar    1  UNL1       -0.0774
     17 O         142.4539  143.0070  170.3447 O.2     1  UNL1       -0.3578
     18 C         143.2767  137.6345  160.5883 C.3     1  UNL1        0.0730
     19 C         142.8023  138.1046  159.2452 C.3     1  UNL1        0.0294
     20 C         141.3418  138.3526  159.0102 C.3     1  UNL1        0.0666
     21 S         140.7039  139.6121  159.5168 S.3     1  UNL1       -0.0756
     22 C         139.7920  139.5647  160.7069 C.ar    1  UNL1        0.1930
     23 N         138.7108  138.5537  160.9495 N.ar    1  UNL1       -0.1224
     24 N         138.0517  138.8841  162.2558 N.ar    1  UNL1       -0.1328
     25 C         138.7257  140.0994  162.8206 C.ar    1  UNL1        0.1432
     26 N         139.8012  140.5200  161.8633 N.ar    1  UNL1       -0.2918
     27 C         140.7240  141.6904  162.0328 C.3     1  UNL1        0.1337
     28 C         138.3841  140.7753  164.1153 C.3     1  UNL1        0.0588
     29 C         138.7239  140.1151  165.4186 C.3     1  UNL1        0.0080
     30 C         137.7026  142.1115  164.1069 C.3     1  UNL1        0.0080
@<TRIPOS>BOND
     1    12    13    1
     2    13    14   ar
     3    14    15   ar
     4    15     1    1
     5     1     2   ar
     6     2     3   ar
     7     3     4   ar
     8     4     5   ar
     9     5     6   ar
    10     5     7    1
    11     7     8    1
    12     8     9    1
    13     9    18    1
    14    18    19    1
    15    19    20    1
    16    20    21    1
    17    21    22    1
    18    22    23   ar
    19    23    24   ar
    20    24    25   ar
    21    25    28    1
    22    28    29    1
    23    28    30    1
    24    25    26   ar
    25    26    27    1
    26     9    10    1
    27    10    11    1
    28    15    16   ar
    29    16    17   ar
    30    17    13   ar
    31     6     1   ar
    32    26    22   ar
    33    11     4    1
@<TRIPOS>MOLECULE
*****
 30 33 0 0 0
SMALL
GASTEIGER

@<TRIPOS>ATOM
      1 C         139.7077  139.5532  167.0260 C.ar    1  UNL1        0.0206
      2 C         138.4586  139.0085  166.3991 C.ar    1  UNL1        0.0013
      3 C         138.4931  138.4781  164.9964 C.ar    1  UNL1       -0.0045
      4 C         139.7769  138.4924  164.2206 C.ar    1  UNL1       -0.0247
      5 C         141.0259  139.0371  164.8474 C.ar    1  UNL1       -0.0246
      6 C         140.9914  139.5675  166.2501 C.ar    1  UNL1       -0.0029
      7 C         142.3999  139.1438  164.2549 C.3     1  UNL1        0.0433
      8 C         142.8639  138.7321  162.8891 C.3     1  UNL1        0.0768
      9 N         142.0687  138.1121  161.7787 N.3     1  UNL1       -0.2720
     10 C         140.6130  137.7506  161.7596 C.3     1  UNL1        0.0768
     11 C         139.5930  137.9199  162.8464 C.3     1  UNL1        0.0433
     12 C         140.9863  142.1317  171.4528 C.3     1  UNL1        0.0754
     13 C         140.2608  141.2687  170.4635 C.ar    1  UNL1        0.1548
     14 C         140.6900  140.9925  169.0529 C.ar    1  UNL1        0.0580
     15 C         139.6731  140.0835  168.4286 C.ar    1  UNL1        0.1227
     16 N         138.6155  139.7980  169.4533 N.ar    1  UNL1       -0.0774
     17 O         138.9787  140.5305  170.7108 O.2     1  UNL1       -0.3578
     18 C         142.8298  137.8142  160.5209 C.3     1  UNL1        0.0730
     19 C         143.0973  138.9075  159.5293 C.3     1  UNL1        0.0294
     20 C         141.9539  139.6598  158.9156 C.3     1  UNL1        0.0666
     21 S         141.7366  141.1039  159.2579 S.3     1  UNL1       -0.0756
     22 C         141.2997  141.4896  160.6401 C.ar    1  UNL1        0.1930
     23 N         142.1747  142.0689  161.7119 N.ar    1  UNL1       -0.1224
     24 N         141.3269  142.3010  162.9273 N.ar    1  UNL1       -0.1328
     25 C         139.9279  141.8651  162.6067 C.ar    1  UNL1        0.1432
     26 N         139.9110  141.3636  161.1931 N.ar    1  UNL1       -0.2918
     27 C         138.7155  140.8299  160.4612 C.3     1  UNL1        0.1337
     28 C         138.7521  141.9209  163.5365 C.3     1  UNL1        0.0588
     29 C         138.9173  142.4703  164.9224 C.3     1  UNL1        0.0080
     30 C         137.4112  141.4273  163.0804 C.3     1  UNL1        0.0080
@<TRIPOS>BOND
     1    12    13    1
     2    13    14   ar
     3    14    15   ar
     4    15     1    1
     5     1     2   ar
     6     2     3   ar
     7     3     4   ar
     8     4     5   ar
     9     5     6   ar
    10     5     7    1
    11     7     8    1
    12     8     9    1
    13     9    18    1
    14    18    19    1
    15    19    20    1
    16    20    21    1
    17    21    22    1
    18    22    23   ar
    19    23    24   ar
    20    24    25   ar
    21    25    28    1
    22    28    29    1
    23    28    30    1
    24    25    26   ar
    25    26    27    1
    26     9    10    1
    27    10    11    1
    28    15    16   ar
    29    16    17   ar
    30    17    13   ar
    31     6     1   ar
    32    26    22   ar
    33    11     4    1
@<TRIPOS>MOLECULE
*****
 30 33 0 0 0
SMALL
GASTEIGER

@<TRIPOS>ATOM
      1 C         140.0605  143.2589  166.7276 C.ar    1  UNL1        0.0206
      2 C         139.1416  144.3752  166.3284 C.ar    1  UNL1        0.0013
      3 C         138.8743  144.6440  164.8770 C.ar    1  UNL1       -0.0045
      4 C         139.5260  143.7963  163.8249 C.ar    1  UNL1       -0.0247
      5 C         140.4449  142.6801  164.2242 C.ar    1  UNL1       -0.0246
      6 C         140.7122  142.4114  165.6755 C.ar    1  UNL1       -0.0029
      7 C         141.1915  141.7228  163.3431 C.3     1  UNL1        0.0433
      8 C         141.2034  141.6454  161.8451 C.3     1  UNL1        0.0768
      9 N         140.4717  142.5061  160.8584 N.3     1  UNL1       -0.2720
     10 C         139.5475  143.6569  161.1257 C.3     1  UNL1        0.0768
     11 C         139.1266  144.2311  162.4460 C.3     1  UNL1        0.0433
     12 C         141.4071  140.8351  171.2212 C.3     1  UNL1        0.0754
     13 C         140.9467  141.8762  170.2445 C.ar    1  UNL1        0.1548
     14 C         140.8210  141.6985  168.7602 C.ar    1  UNL1        0.0580
     15 C         140.3277  142.9903  168.1789 C.ar    1  UNL1        0.1227
     16 N         140.1486  143.9663  169.3038 N.ar    1  UNL1       -0.0774
     17 O         140.5311  143.2777  170.5803 O.2     1  UNL1       -0.3578
     18 C         140.6937  142.1719  159.4130 C.3     1  UNL1        0.0730
     19 C         139.6452  141.4206  158.6472 C.3     1  UNL1        0.0294
     20 C         139.1789  140.0798  159.1318 C.3     1  UNL1        0.0666
     21 S         137.9012  139.9661  159.9093 S.3     1  UNL1       -0.0756
     22 C         137.9194  140.0891  161.4041 C.ar    1  UNL1        0.1930
     23 N         137.2522  141.1652  162.2083 N.ar    1  UNL1       -0.1224
     24 N         137.5283  140.8989  163.6584 N.ar    1  UNL1       -0.1328
     25 C         138.3662  139.6582  163.7504 C.ar    1  UNL1        0.1432
     26 N         138.6079  139.1577  162.3571 N.ar    1  UNL1       -0.2918
     27 C         139.3992  137.9396  161.9827 C.3     1  UNL1        0.1337
     28 C         138.8734  139.0284  165.0138 C.3     1  UNL1        0.0588
     29 C         137.9890  138.9559  166.2232 C.3     1  UNL1        0.0080
     30 C         140.2650  138.4712  165.0679 C.3     1  UNL1        0.0080
@<TRIPOS>BOND
     1    12    13    1
     2    13    14   ar
     3    14    15   ar
     4    15     1    1
     5     1     2   ar
     6     2     3   ar
     7     3     4   ar
     8     4     5   ar
     9     5     6   ar
    10     5     7    1
    11     7     8    1
    12     8     9    1
    13     9    18    1
    14    18    19    1
    15    19    20    1
    16    20    21    1
    17    21    22    1
    18    22    23   ar
    19    23    24   ar
    20    24    25   ar
    21    25    28    1
    22    28    29    1
    23    28    30    1
    24    25    26   ar
    25    26    27    1
    26     9    10    1
    27    10    11    1
    28    15    16   ar
    29    16    17   ar
    30    17    13   ar
    31     6     1   ar
    32    26    22   ar
    33    11     4    1
@<TRIPOS>MOLECULE
*****
 30 33 0 0 0
SMALL
GASTEIGER

@<TRIPOS>ATOM
      1 C         141.9760  140.1330  167.0483 C.ar    1  UNL1        0.0206
      2 C         142.9391  138.9871  166.9510 C.ar    1  UNL1        0.0013
      3 C         143.4930  138.5842  165.6164 C.ar    1  UNL1       -0.0045
      4 C         143.0838  139.3273  164.3793 C.ar    1  UNL1       -0.0247
      5 C         142.1208  140.4731  164.4767 C.ar    1  UNL1       -0.0246
      6 C         141.5669  140.8760  165.8111 C.ar    1  UNL1       -0.0029
      7 C         141.5856  141.3411  163.3765 C.3     1  UNL1        0.0433
      8 C         141.8814  141.2775  161.9073 C.3     1  UNL1        0.0768
      9 N         142.7853  140.3304  161.1755 N.3     1  UNL1       -0.2720
     10 C         143.6167  139.2127  161.7319 C.3     1  UNL1        0.0768
     11 C         143.7496  138.7663  163.1578 C.3     1  UNL1        0.0433
     12 C         139.5934  142.8849  170.8733 C.3     1  UNL1        0.0754
     13 C         140.3270  141.8008  170.1410 C.ar    1  UNL1        0.1548
     14 C         140.7036  141.8164  168.6891 C.ar    1  UNL1        0.0580
     15 C         141.4222  140.5358  168.3828 C.ar    1  UNL1        0.1227
     16 N         141.4897  139.7288  169.6454 N.ar    1  UNL1       -0.0774
     17 O         140.8128  140.5105  170.7320 O.2     1  UNL1       -0.3578
     18 C         142.8688  140.5267  159.6907 C.3     1  UNL1        0.0730
     19 C         141.6155  140.7039  158.8858 C.3     1  UNL1        0.0294
     20 C         140.7937  139.5084  158.5044 C.3     1  UNL1        0.0666
     21 S         139.5507  139.1758  159.2752 S.3     1  UNL1       -0.0756
     22 C         139.6526  138.7038  160.6954 C.ar    1  UNL1        0.1930
     23 N         140.5624  137.6244  161.2025 N.ar    1  UNL1       -0.1224
     24 N         140.3348  137.4817  162.6783 N.ar    1  UNL1       -0.1328
     25 C         139.2843  138.4729  163.0832 C.ar    1  UNL1        0.1432
     26 N         138.8627  139.2282  161.8576 N.ar    1  UNL1       -0.2918
     27 C         137.8321  140.3168  161.8039 C.3     1  UNL1        0.1337
     28 C         138.7493  138.6736  164.4700 C.3     1  UNL1        0.0588
     29 C         138.7040  137.5222  165.4304 C.3     1  UNL1        0.0080
     30 C         138.2596  140.0257  164.8967 C.3     1  UNL1        0.0080
@<TRIPOS>BOND
     1    12    13    1
     2    13    14   ar
     3    14    15   ar
     4    15     1    1
     5     1     2   ar
     6     2     3   ar
     7     3     4   ar
     8     4     5   ar
     9     5     6   ar
    10     5     7    1
    11     7     8    1
    12     8     9    1
    13     9    18    1
    14    18    19    1
    15    19    20    1
    16    20    21    1
    17    21    22    1
    18    22    23   ar
    19    23    24   ar
    20    24    25   ar
    21    25    28    1
    22    28    29    1
    23    28    30    1
    24    25    26   ar
    25    26    27    1
    26     9    10    1
    27    10    11    1
    28    15    16   ar
    29    16    17   ar
    30    17    13   ar
    31     6     1   ar
    32    26    22   ar
    33    11     4    1
@<TRIPOS>MOLECULE
*****
 30 33 0 0 0
SMALL
GASTEIGER

@<TRIPOS>ATOM
      1 C         139.7313  139.5946  166.8049 C.ar    1  UNL1        0.0206
      2 C         138.4555  139.3450  166.0565 C.ar    1  UNL1        0.0013
      3 C         138.5007  138.8981  164.6253 C.ar    1  UNL1       -0.0045
      4 C         139.8217  138.7008  163.9425 C.ar    1  UNL1       -0.0247
      5 C         141.0974  138.9505  164.6909 C.ar    1  UNL1       -0.0246
      6 C         141.0523  139.3973  166.1221 C.ar    1  UNL1       -0.0029
      7 C         142.5095  138.8154  164.2033 C.3     1  UNL1        0.0433
      8 C         142.9946  138.3972  162.8468 C.3     1  UNL1        0.0768
      9 N         142.1874  138.0110  161.6431 N.3     1  UNL1       -0.2720
     10 C         140.6957  137.9474  161.4983 C.3     1  UNL1        0.0768
     11 C         139.6429  138.2544  162.5217 C.3     1  UNL1        0.0433
     12 C         140.9748  141.9097  171.3847 C.3     1  UNL1        0.0754
     13 C         140.2576  141.1056  170.3412 C.ar    1  UNL1        0.1548
     14 C         140.6971  140.9133  168.9199 C.ar    1  UNL1        0.0580
     15 C         139.6861  140.0415  168.2360 C.ar    1  UNL1        0.1227
     16 N         138.6218  139.6949  169.2347 N.ar    1  UNL1       -0.0774
     17 O         138.9750  140.3525  170.5356 O.2     1  UNL1       -0.3578
     18 C         142.9761  137.6391  160.4226 C.3     1  UNL1        0.0730
     19 C         142.5561  138.1462  159.0748 C.3     1  UNL1        0.0294
     20 C         143.1356  139.4218  158.5393 C.3     1  UNL1        0.0666
     21 S         143.7914  140.3970  159.4713 S.3     1  UNL1       -0.0756
     22 C         142.9584  141.1909  160.4336 C.ar    1  UNL1        0.1930
     23 N         141.4848  141.4472  160.3210 N.ar    1  UNL1       -0.1224
     24 N         141.0685  142.2826  161.4952 N.ar    1  UNL1       -0.1328
     25 C         142.2848  142.5426  162.3336 C.ar    1  UNL1        0.1432
     26 N         143.4529  141.8679  161.6775 N.ar    1  UNL1       -0.2918
     27 C         144.8672  141.8699  162.1775 C.3     1  UNL1        0.1337
     28 C         142.3259  143.3377  163.6048 C.3     1  UNL1        0.0588
     29 C         141.7857  142.7501  164.8748 C.3     1  UNL1        0.0080
     30 C         142.9073  144.7204  163.6062 C.3     1  UNL1        0.0080
@<TRIPOS>BOND
     1    12    13    1
     2    13    14   ar
     3    14    15   ar
     4    15     1    1
     5     1     2   ar
     6     2     3   ar
     7     3     4   ar
     8     4     5   ar
     9     5     6   ar
    10     5     7    1
    11     7     8    1
    12     8     9    1
    13     9    18    1
    14    18    19    1
    15    19    20    1
    16    20    21    1
    17    21    22    1
    18    22    23   ar
    19    23    24   ar
    20    24    25   ar
    21    25    28    1
    22    28    29    1
    23    28    30    1
    24    25    26   ar
    25    26    27    1
    26     9    10    1
    27    10    11    1
    28    15    16   ar
    29    16    17   ar
    30    17    13   ar
    31     6     1   ar
    32    26    22   ar
    33    11     4    1
@<TRIPOS>MOLECULE
*****
 30 33 0 0 0
SMALL
GASTEIGER

@<TRIPOS>ATOM
      1 C         142.9385  141.9300  166.4995 C.ar    1  UNL1        0.0206
      2 C         144.0584  142.9209  166.3803 C.ar    1  UNL1        0.0013
      3 C         144.5267  143.3640  165.0259 C.ar    1  UNL1       -0.0045
      4 C         143.8752  142.8162  163.7908 C.ar    1  UNL1       -0.0247
      5 C         142.7555  141.8254  163.9100 C.ar    1  UNL1       -0.0246
      6 C         142.2871  141.3823  165.2643 C.ar    1  UNL1       -0.0029
      7 C         141.9746  141.1604  162.8154 C.3     1  UNL1        0.0433
      8 C         142.1207  141.3220  161.3313 C.3     1  UNL1        0.0768
      9 N         143.0837  142.1885  160.5753 N.3     1  UNL1       -0.2720
     10 C         144.1385  143.1075  161.1165 C.3     1  UNL1        0.0768
     11 C         144.4908  143.3869  162.5476 C.3     1  UNL1        0.0433
     12 C         140.7272  141.9229  171.2943 C.3     1  UNL1        0.0754
     13 C         141.4538  141.4836  170.0579 C.ar    1  UNL1        0.1548
     14 C         141.7163  142.3246  168.8437 C.ar    1  UNL1        0.0580
     15 C         142.4702  141.4869  167.8539 C.ar    1  UNL1        0.1227
     16 N         142.6736  140.1282  168.4561 N.ar    1  UNL1       -0.0774
     17 O         142.0455  140.1262  169.8182 O.2     1  UNL1       -0.3578
     18 C         142.9780  142.1281  159.0802 C.3     1  UNL1        0.0730
     19 C         142.5135  143.3299  158.3120 C.3     1  UNL1        0.0294
     20 C         141.0767  143.7551  158.3812 C.3     1  UNL1        0.0666
     21 S         140.6162  144.6658  159.4804 S.3     1  UNL1       -0.0756
     22 C         139.7464  144.1335  160.5805 C.ar    1  UNL1        0.1930
     23 N         138.4756  143.3568  160.4020 N.ar    1  UNL1       -0.1224
     24 N         137.9384  143.0277  161.7633 N.ar    1  UNL1       -0.1328
     25 C         138.8772  143.6011  162.7831 C.ar    1  UNL1        0.1432
     26 N         139.9947  144.2845  162.0521 N.ar    1  UNL1       -0.2918
     27 C         141.1563  144.9942  162.6821 C.3     1  UNL1        0.1337
     28 C         138.7253  143.5074  164.2724 C.3     1  UNL1        0.0588
     29 C         138.7220  142.1657  164.9431 C.3     1  UNL1        0.0080
     30 C         138.5768  144.7554  165.0912 C.3     1  UNL1        0.0080
@<TRIPOS>BOND
     1    12    13    1
     2    13    14   ar
     3    14    15   ar
     4    15     1    1
     5     1     2   ar
     6     2     3   ar
     7     3     4   ar
     8     4     5   ar
     9     5     6   ar
    10     5     7    1
    11     7     8    1
    12     8     9    1
    13     9    18    1
    14    18    19    1
    15    19    20    1
    16    20    21    1
    17    21    22    1
    18    22    23   ar
    19    23    24   ar
    20    24    25   ar
    21    25    28    1
    22    28    29    1
    23    28    30    1
    24    25    26   ar
    25    26    27    1
    26     9    10    1
    27    10    11    1
    28    15    16   ar
    29    16    17   ar
    30    17    13   ar
    31     6     1   ar
    32    26    22   ar
    33    11     4    1
