@<TRIPOS>MOLECULE
*****
 32 35 0 0 0
SMALL
GASTEIGER

@<TRIPOS>ATOM
      1 C         140.5414  142.6543  161.8617 C.ar    1  UNL1        0.0537
      2 C         141.2733  141.9315  160.7700 C.ar    1  UNL1        0.0060
      3 C         142.1714  140.7778  161.1055 C.ar    1  UNL1        0.0173
      4 C         142.3375  140.3470  162.5326 C.ar    1  UNL1        0.0594
      5 C         141.6057  141.0698  163.6243 C.ar    1  UNL1        0.0130
      6 C         140.7076  142.2235  163.2888 C.ar    1  UNL1        0.0057
      7 C         141.9638  140.4231  164.9295 C.ar    1  UNL1       -0.0091
      8 C         142.9171  139.3006  164.6445 C.ar    1  UNL1        0.0331
      9 N         143.1481  139.2536  163.1631 N.ar    1  UNL1       -0.3289
     10 C         144.0340  138.2835  162.4393 C.3     1  UNL1        0.1301
     11 C         143.4517  138.4664  165.7706 C.3     1  UNL1        0.0435
     12 C         143.0330  138.7546  167.1818 C.3     1  UNL1        0.0066
     13 C         142.0797  139.8771  167.4669 C.3     1  UNL1        0.0049
     14 C         141.5451  140.7114  166.3407 C.3     1  UNL1        0.0275
     15 C         141.6610  140.1654  168.8781 C.3     1  UNL1        0.0053
     16 C         142.6699  140.6535  169.8750 C.3     1  UNL1        0.0322
     17 C         142.2512  140.9418  171.2862 C.3     1  UNL1        0.1422
     18 O         140.8235  140.7418  171.7006 O.3     1  UNL1       -0.3538
     19 C         139.8145  140.2537  170.7038 C.3     1  UNL1        0.1422
     20 C         140.2332  139.9655  169.2925 C.3     1  UNL1        0.0322
     21 N         140.1498  145.2142  161.6529 N.am    1  UNL1       -0.2743
     22 C         139.2517  146.3678  161.3175 C.3     1  UNL1        0.1152
     23 C         139.6433  143.8080  161.5263 C.2     1  UNL1        0.2491
     24 O         138.2388  143.5554  161.0643 O.2     1  UNL1       -0.2699
     25 C         141.5543  145.4668  162.1150 C.3     1  UNL1        0.0943
     26 C         141.9132  145.2823  163.5596 C.3     1  UNL1        0.0311
     27 C         143.3499  145.1254  163.9614 C.3     1  UNL1        0.0868
     28 C         145.5100  141.7987  163.8295 C.3     1  UNL1        0.1107
     29 N         144.7024  142.9441  164.3644 N.am    1  UNL1       -0.3027
     30 C         144.1575  143.9801  163.4265 C.2     1  UNL1        0.2226
     31 O         144.4202  143.8709  161.9538 O.2     1  UNL1       -0.2751
     32 H         144.5299  143.0158  165.3310 H       1  UNL1        0.1495
@<TRIPOS>BOND
     1    28    29    1
     2    29    30   am
     3    30    31    2
     4    30    27    1
     5    27    26    1
     6    26    25    1
     7    25    21    1
     8    21    22    1
     9    21    23   am
    10    23    24    2
    11    23     1    1
    12     1     2   ar
    13     2     3   ar
    14     3     4   ar
    15     4     5   ar
    16     5     6   ar
    17     5     7   ar
    18     7     8   ar
    19     8     9   ar
    20     9    10    1
    21     8    11    1
    22    11    12    1
    23    12    13    1
    24    13    15    1
    25    15    16    1
    26    16    17    1
    27    17    18    1
    28    18    19    1
    29    19    20    1
    30    13    14    1
    31     6     1   ar
    32    14     7    1
    33     9     4   ar
    34    20    15    1
    35    29    32    1
@<TRIPOS>MOLECULE
*****
 32 35 0 0 0
SMALL
GASTEIGER

@<TRIPOS>ATOM
      1 C         141.4757  143.2385  161.5943 C.ar    1  UNL1        0.0537
      2 C         141.7997  142.2077  160.5539 C.ar    1  UNL1        0.0060
      3 C         142.2524  140.8393  160.9694 C.ar    1  UNL1        0.0173
      4 C         142.3810  140.5017  162.4252 C.ar    1  UNL1        0.0594
      5 C         142.0569  141.5325  163.4656 C.ar    1  UNL1        0.0130
      6 C         141.6043  142.9009  163.0501 C.ar    1  UNL1        0.0057
      7 C         142.2760  140.9143  164.8146 C.ar    1  UNL1       -0.0091
      8 C         142.7354  139.5015  164.6080 C.ar    1  UNL1        0.0331
      9 N         142.8003  139.2465  163.1312 N.ar    1  UNL1       -0.3289
     10 C         143.2121  137.9618  162.4756 C.3     1  UNL1        0.1301
     11 C         143.0353  138.6297  165.7911 C.3     1  UNL1        0.0435
     12 C         142.8757  139.1708  167.1810 C.3     1  UNL1        0.0066
     13 C         142.4163  140.5836  167.3877 C.3     1  UNL1        0.0049
     14 C         142.1164  141.4554  166.2045 C.3     1  UNL1        0.0275
     15 C         142.2568  141.1247  168.7776 C.3     1  UNL1        0.0053
     16 C         141.3998  140.3982  169.7715 C.3     1  UNL1        0.0322
     17 C         141.2403  140.9393  171.1614 C.3     1  UNL1        0.1422
     18 O         141.9378  142.2070  171.5574 O.3     1  UNL1       -0.3538
     19 C         142.7947  142.9335  170.5635 C.3     1  UNL1        0.1422
     20 C         142.9543  142.3924  169.1736 C.3     1  UNL1        0.0322
     21 N         139.9174  145.2906  161.9273 N.am    1  UNL1       -0.2743
     22 C         139.4648  146.6590  161.5119 C.3     1  UNL1        0.1152
     23 C         141.0230  144.6069  161.1788 C.2     1  UNL1        0.2491
     24 O         141.6759  145.2916  160.0149 O.2     1  UNL1       -0.2699
     25 C         139.2645  144.6058  163.0913 C.3     1  UNL1        0.0943
     26 C         137.8985  144.0052  162.9383 C.3     1  UNL1        0.0311
     27 C         137.7396  142.6552  162.3041 C.3     1  UNL1        0.0868
     28 C         138.2411  140.0396  165.2464 C.3     1  UNL1        0.1107
     29 N         137.8208  141.2722  164.5019 N.am    1  UNL1       -0.3027
     30 C         138.1599  141.4227  163.0485 C.2     1  UNL1        0.2226
     31 O         138.9193  140.3406  162.3396 O.2     1  UNL1       -0.2751
     32 H         137.3224  141.9824  164.9672 H       1  UNL1        0.1495
@<TRIPOS>BOND
     1    28    29    1
     2    29    30   am
     3    30    31    2
     4    30    27    1
     5    27    26    1
     6    26    25    1
     7    25    21    1
     8    21    22    1
     9    21    23   am
    10    23    24    2
    11    23     1    1
    12     1     2   ar
    13     2     3   ar
    14     3     4   ar
    15     4     5   ar
    16     5     6   ar
    17     5     7   ar
    18     7     8   ar
    19     8     9   ar
    20     9    10    1
    21     8    11    1
    22    11    12    1
    23    12    13    1
    24    13    15    1
    25    15    16    1
    26    16    17    1
    27    17    18    1
    28    18    19    1
    29    19    20    1
    30    13    14    1
    31     6     1   ar
    32    14     7    1
    33     9     4   ar
    34    20    15    1
    35    29    32    1
@<TRIPOS>MOLECULE
*****
 32 35 0 0 0
SMALL
GASTEIGER

@<TRIPOS>ATOM
      1 C         139.9801  143.1753  160.8525 C.ar    1  UNL1        0.0537
      2 C         139.4271  141.9994  160.1033 C.ar    1  UNL1        0.0060
      3 C         139.1360  140.7183  160.8273 C.ar    1  UNL1        0.0173
      4 C         139.3980  140.6131  162.3004 C.ar    1  UNL1        0.0594
      5 C         139.9511  141.7890  163.0496 C.ar    1  UNL1        0.0130
      6 C         140.2421  143.0701  162.3257 C.ar    1  UNL1        0.0057
      7 C         140.1061  141.3912  164.4877 C.ar    1  UNL1       -0.0091
      8 C         139.6488  139.9694  164.6271 C.ar    1  UNL1        0.0331
      9 N         139.2112  139.4885  163.2753 N.ar    1  UNL1       -0.3289
     10 C         138.6801  138.1229  162.9547 C.3     1  UNL1        0.1301
     11 C         139.6899  139.2964  165.9669 C.3     1  UNL1        0.0435
     12 C         140.1884  140.0451  167.1674 C.3     1  UNL1        0.0066
     13 C         140.6457  141.4668  167.0279 C.3     1  UNL1        0.0049
     14 C         140.6045  142.1399  165.6880 C.3     1  UNL1        0.0275
     15 C         141.1441  142.2156  168.2283 C.3     1  UNL1        0.0053
     16 C         140.2771  143.2525  168.8787 C.3     1  UNL1        0.0322
     17 C         140.7756  144.0013  170.0791 C.3     1  UNL1        0.1422
     18 O         142.1410  143.7129  170.6292 O.3     1  UNL1       -0.3538
     19 C         143.0080  142.6759  169.9788 C.3     1  UNL1        0.1422
     20 C         142.5096  141.9272  168.7784 C.3     1  UNL1        0.0322
     21 N         141.3179  144.4899  159.0548 N.am    1  UNL1       -0.2743
     22 C         141.6090  145.7710  158.3308 C.3     1  UNL1        0.1152
     23 C         140.2712  144.4564  160.1286 C.2     1  UNL1        0.2491
     24 O         139.5154  145.7039  160.4784 O.2     1  UNL1       -0.2699
     25 C         142.0737  143.2423  158.7049 C.3     1  UNL1        0.0943
     26 C         143.4520  143.0215  159.2540 C.3     1  UNL1        0.0311
     27 C         143.6325  142.3197  160.5674 C.3     1  UNL1        0.0868
     28 C         143.8366  145.2179  163.2709 C.3     1  UNL1        0.1107
     29 N         143.4290  144.4401  162.0548 N.am    1  UNL1       -0.3027
     30 C         144.0402  143.0974  161.7835 C.2     1  UNL1        0.2226
     31 O         145.0591  142.5325  162.7283 O.2     1  UNL1       -0.2751
     32 H         142.7602  144.8109  161.4346 H       1  UNL1        0.1495
@<TRIPOS>BOND
     1    28    29    1
     2    29    30   am
     3    30    31    2
     4    30    27    1
     5    27    26    1
     6    26    25    1
     7    25    21    1
     8    21    22    1
     9    21    23   am
    10    23    24    2
    11    23     1    1
    12     1     2   ar
    13     2     3   ar
    14     3     4   ar
    15     4     5   ar
    16     5     6   ar
    17     5     7   ar
    18     7     8   ar
    19     8     9   ar
    20     9    10    1
    21     8    11    1
    22    11    12    1
    23    12    13    1
    24    13    15    1
    25    15    16    1
    26    16    17    1
    27    17    18    1
    28    18    19    1
    29    19    20    1
    30    13    14    1
    31     6     1   ar
    32    14     7    1
    33     9     4   ar
    34    20    15    1
    35    29    32    1
@<TRIPOS>MOLECULE
*****
 32 35 0 0 0
SMALL
GASTEIGER

@<TRIPOS>ATOM
      1 C         141.6006  141.6654  160.5147 C.ar    1  UNL1        0.0537
      2 C         140.8345  140.5521  159.8639 C.ar    1  UNL1        0.0060
      3 C         140.0733  139.5725  160.7070 C.ar    1  UNL1        0.0173
      4 C         140.0783  139.7061  162.2010 C.ar    1  UNL1        0.0594
      5 C         140.8444  140.8194  162.8519 C.ar    1  UNL1        0.0130
      6 C         141.6055  141.7990  162.0087 C.ar    1  UNL1        0.0057
      7 C         140.6659  140.6989  164.3364 C.ar    1  UNL1       -0.0091
      8 C         139.7895  139.5112  164.6030 C.ar    1  UNL1        0.0331
      9 N         139.4263  138.8976  163.2833 N.ar    1  UNL1       -0.3289
     10 C         138.5628  137.6878  163.0812 C.3     1  UNL1        0.1301
     11 C         139.4354  139.1418  166.0129 C.3     1  UNL1        0.0435
     12 C         139.9577  139.9602  167.1564 C.3     1  UNL1        0.0066
     13 C         140.8341  141.1479  166.8898 C.3     1  UNL1        0.0049
     14 C         141.1882  141.5173  165.4797 C.3     1  UNL1        0.0275
     15 C         141.3564  141.9663  168.0332 C.3     1  UNL1        0.0053
     16 C         140.4580  142.9488  168.7243 C.3     1  UNL1        0.0322
     17 C         140.9804  143.7672  169.8678 C.3     1  UNL1        0.1422
     18 O         142.4012  143.6031  170.3201 O.3     1  UNL1       -0.3538
     19 C         143.2996  142.6207  169.6289 C.3     1  UNL1        0.1422
     20 C         142.7773  141.8023  168.4855 C.3     1  UNL1        0.0322
     21 N         141.7010  143.9105  159.2111 N.am    1  UNL1       -0.2743
     22 C         142.4622  144.8901  158.3679 C.3     1  UNL1        0.1152
     23 C         142.3617  142.6450  159.6715 C.2     1  UNL1        0.2491
     24 O         143.7836  142.3592  159.2888 O.2     1  UNL1       -0.2699
     25 C         140.2791  144.1963  159.5938 C.3     1  UNL1        0.0943
     26 C         139.9505  145.4176  160.4004 C.3     1  UNL1        0.0311
     27 C         140.3184  145.4781  161.8534 C.3     1  UNL1        0.0868
     28 C         138.6517  144.8456  165.3991 C.3     1  UNL1        0.1107
     29 N         139.6707  145.1867  164.3524 N.am    1  UNL1       -0.3027
     30 C         139.2994  145.1371  162.8999 C.2     1  UNL1        0.2226
     31 O         137.9093  144.7464  162.4940 O.2     1  UNL1       -0.2751
     32 H         140.5831  145.4431  164.6188 H       1  UNL1        0.1495
@<TRIPOS>BOND
     1    28    29    1
     2    29    30   am
     3    30    31    2
     4    30    27    1
     5    27    26    1
     6    26    25    1
     7    25    21    1
     8    21    22    1
     9    21    23   am
    10    23    24    2
    11    23     1    1
    12     1     2   ar
    13     2     3   ar
    14     3     4   ar
    15     4     5   ar
    16     5     6   ar
    17     5     7   ar
    18     7     8   ar
    19     8     9   ar
    20     9    10    1
    21     8    11    1
    22    11    12    1
    23    12    13    1
    24    13    15    1
    25    15    16    1
    26    16    17    1
    27    17    18    1
    28    18    19    1
    29    19    20    1
    30    13    14    1
    31     6     1   ar
    32    14     7    1
    33     9     4   ar
    34    20    15    1
    35    29    32    1
@<TRIPOS>MOLECULE
*****
 32 35 0 0 0
SMALL
GASTEIGER

@<TRIPOS>ATOM
      1 C         141.4824  140.7136  159.3469 C.ar    1  UNL1        0.0537
      2 C         142.5286  141.7081  158.9390 C.ar    1  UNL1        0.0060
      3 C         143.1615  142.5960  159.9690 C.ar    1  UNL1        0.0173
      4 C         142.7483  142.4894  161.4070 C.ar    1  UNL1        0.0594
      5 C         141.7022  141.4949  161.8150 C.ar    1  UNL1        0.0130
      6 C         141.0692  140.6069  160.7849 C.ar    1  UNL1        0.0057
      7 C         141.4995  141.6165  163.2963 C.ar    1  UNL1       -0.0091
      8 C         142.4204  142.6863  163.8038 C.ar    1  UNL1        0.0331
      9 N         143.1922  143.2258  162.6361 N.ar    1  UNL1       -0.3289
     10 C         144.2263  144.3110  162.6884 C.3     1  UNL1        0.1301
     11 C         142.4372  143.0310  165.2635 C.3     1  UNL1        0.0435
     12 C         141.5331  142.3058  166.2157 C.3     1  UNL1        0.0066
     13 C         140.6122  141.2361  165.7082 C.3     1  UNL1        0.0049
     14 C         140.5954  140.8915  164.2485 C.3     1  UNL1        0.0275
     15 C         139.7081  140.5110  166.6605 C.3     1  UNL1        0.0053
     16 C         139.8401  140.7349  168.1378 C.3     1  UNL1        0.0322
     17 C         138.9360  140.0098  169.0901 C.3     1  UNL1        0.1422
     18 O         137.8998  139.0607  168.5650 O.3     1  UNL1       -0.3538
     19 C         137.7677  138.8368  167.0877 C.3     1  UNL1        0.1422
     20 C         138.6719  139.5619  166.1354 C.3     1  UNL1        0.0322
     21 N         141.5303  138.5552  157.9016 N.am    1  UNL1       -0.2743
     22 C         140.8974  137.6673  156.8715 C.3     1  UNL1        0.1152
     23 C         140.8495  139.8256  158.3169 C.2     1  UNL1        0.2491
     24 O         139.5359  140.2081  157.7022 O.2     1  UNL1       -0.2699
     25 C         142.8440  138.1726  158.5163 C.3     1  UNL1        0.0943
     26 C         142.8750  137.4486  159.8295 C.3     1  UNL1        0.0311
     27 C         143.6412  138.0223  160.9845 C.3     1  UNL1        0.0868
     28 C         141.1444  137.3122  163.9864 C.3     1  UNL1        0.1107
     29 N         141.7532  137.2979  162.6156 N.am    1  UNL1       -0.3027
     30 C         143.0325  138.0367  162.3553 C.2     1  UNL1        0.2226
     31 O         143.7029  138.7898  163.4659 O.2     1  UNL1       -0.2751
     32 H         141.3132  136.8036  161.8867 H       1  UNL1        0.1495
@<TRIPOS>BOND
     1    28    29    1
     2    29    30   am
     3    30    31    2
     4    30    27    1
     5    27    26    1
     6    26    25    1
     7    25    21    1
     8    21    22    1
     9    21    23   am
    10    23    24    2
    11    23     1    1
    12     1     2   ar
    13     2     3   ar
    14     3     4   ar
    15     4     5   ar
    16     5     6   ar
    17     5     7   ar
    18     7     8   ar
    19     8     9   ar
    20     9    10    1
    21     8    11    1
    22    11    12    1
    23    12    13    1
    24    13    15    1
    25    15    16    1
    26    16    17    1
    27    17    18    1
    28    18    19    1
    29    19    20    1
    30    13    14    1
    31     6     1   ar
    32    14     7    1
    33     9     4   ar
    34    20    15    1
    35    29    32    1
@<TRIPOS>MOLECULE
*****
 32 35 0 0 0
SMALL
GASTEIGER

@<TRIPOS>ATOM
      1 C         140.5074  140.4353  159.8901 C.ar    1  UNL1        0.0537
      2 C         140.1012  141.6768  159.1529 C.ar    1  UNL1        0.0060
      3 C         139.8005  142.9353  159.9118 C.ar    1  UNL1        0.0173
      4 C         139.9061  142.9523  161.4079 C.ar    1  UNL1        0.0594
      5 C         140.3124  141.7108  162.1452 C.ar    1  UNL1        0.0130
      6 C         140.6130  140.4523  161.3863 C.ar    1  UNL1        0.0057
      7 C         140.3308  142.0274  163.6113 C.ar    1  UNL1       -0.0091
      8 C         139.9360  143.4646  163.7801 C.ar    1  UNL1        0.0331
      9 N         139.6735  144.0362  162.4183 N.ar    1  UNL1       -0.3289
     10 C         139.2523  145.4445  162.1194 C.3     1  UNL1        0.1301
     11 C         139.8665  144.0671  165.1519 C.3     1  UNL1        0.0435
     12 C         140.1918  143.2325  166.3550 C.3     1  UNL1        0.0066
     13 C         140.5866  141.7953  166.1863 C.3     1  UNL1        0.0049
     14 C         140.6562  141.1927  164.8144 C.3     1  UNL1        0.0275
     15 C         140.9120  140.9606  167.3894 C.3     1  UNL1        0.0053
     16 C         142.2150  140.2207  167.4589 C.3     1  UNL1        0.0322
     17 C         142.5403  139.3860  168.6620 C.3     1  UNL1        0.1422
     18 O         141.5626  139.2912  169.7957 O.3     1  UNL1       -0.3538
     19 C         140.2596  140.0310  169.7262 C.3     1  UNL1        0.1422
     20 C         139.9342  140.8657  168.5231 C.3     1  UNL1        0.0322
     21 N         142.2215  138.8507  158.7497 N.am    1  UNL1       -0.2743
     22 C         142.5222  137.5923  157.9908 C.3     1  UNL1        0.1152
     23 C         140.8081  139.1769  159.1313 C.2     1  UNL1        0.2491
     24 O         139.6952  138.2446  158.7540 O.2     1  UNL1       -0.2699
     25 C         143.3345  139.7830  159.1269 C.3     1  UNL1        0.0943
     26 C         144.0494  139.6075  160.4338 C.3     1  UNL1        0.0311
     27 C         143.9912  138.2904  161.1495 C.3     1  UNL1        0.0868
     28 C         141.1238  137.1743  163.6559 C.3     1  UNL1        0.1107
     29 N         141.9367  137.3117  162.4027 N.am    1  UNL1       -0.3027
     30 C         143.1785  138.1531  162.4027 C.2     1  UNL1        0.2226
     31 O         143.6074  138.8572  163.6558 O.2     1  UNL1       -0.2751
     32 H         141.6552  136.8496  161.5803 H       1  UNL1        0.1495
@<TRIPOS>BOND
     1    28    29    1
     2    29    30   am
     3    30    31    2
     4    30    27    1
     5    27    26    1
     6    26    25    1
     7    25    21    1
     8    21    22    1
     9    21    23   am
    10    23    24    2
    11    23     1    1
    12     1     2   ar
    13     2     3   ar
    14     3     4   ar
    15     4     5   ar
    16     5     6   ar
    17     5     7   ar
    18     7     8   ar
    19     8     9   ar
    20     9    10    1
    21     8    11    1
    22    11    12    1
    23    12    13    1
    24    13    15    1
    25    15    16    1
    26    16    17    1
    27    17    18    1
    28    18    19    1
    29    19    20    1
    30    13    14    1
    31     6     1   ar
    32    14     7    1
    33     9     4   ar
    34    20    15    1
    35    29    32    1
@<TRIPOS>MOLECULE
*****
 32 35 0 0 0
SMALL
GASTEIGER

@<TRIPOS>ATOM
      1 C         141.8048  142.3869  159.8263 C.ar    1  UNL1        0.0537
      2 C         143.2567  142.6986  159.6148 C.ar    1  UNL1        0.0060
      3 C         144.2438  142.4585  160.7184 C.ar    1  UNL1        0.0173
      4 C         143.7791  141.9067  162.0335 C.ar    1  UNL1        0.0594
      5 C         142.3272  141.5950  162.2450 C.ar    1  UNL1        0.0130
      6 C         141.3400  141.8351  161.1414 C.ar    1  UNL1        0.0057
      7 C         142.1653  141.0637  163.6385 C.ar    1  UNL1       -0.0091
      8 C         143.5172  141.0472  164.2881 C.ar    1  UNL1        0.0331
      9 N         144.5146  141.5681  163.2962 N.ar    1  UNL1       -0.3289
     10 C         145.9886  141.7233  163.5265 C.3     1  UNL1        0.1301
     11 C         143.6654  140.5599  165.6989 C.3     1  UNL1        0.0435
     12 C         142.4617  140.0891  166.4601 C.3     1  UNL1        0.0066
     13 C         141.1098  140.1057  165.8105 C.3     1  UNL1        0.0049
     14 C         140.9616  140.5930  164.3996 C.3     1  UNL1        0.0275
     15 C         139.9060  139.6350  166.5717 C.3     1  UNL1        0.0053
     16 C         139.6871  140.0892  167.9844 C.3     1  UNL1        0.0322
     17 C         138.4834  139.6185  168.7456 C.3     1  UNL1        0.1422
     18 O         137.4985  138.6934  168.0940 O.3     1  UNL1       -0.3538
     19 C         137.7174  138.2391  166.6814 C.3     1  UNL1        0.1422
     20 C         138.9212  138.7099  165.9202 C.3     1  UNL1        0.0322
     21 N         140.3518  144.0211  158.4233 N.am    1  UNL1       -0.2743
     22 C         139.3647  144.2612  157.3198 C.3     1  UNL1        0.1152
     23 C         140.8176  142.6271  158.7228 C.2     1  UNL1        0.2491
     24 O         140.2962  141.4732  157.9187 O.2     1  UNL1       -0.2699
     25 C         140.8732  145.1751  159.2275 C.3     1  UNL1        0.0943
     26 C         140.0876  145.6900  160.3969 C.3     1  UNL1        0.0311
     27 C         140.4905  145.3183  161.7932 C.3     1  UNL1        0.0868
     28 C         138.6665  144.8794  165.2905 C.3     1  UNL1        0.1107
     29 N         139.7151  145.2116  164.2706 N.am    1  UNL1       -0.3027
     30 C         139.4419  144.9861  162.8130 C.2     1  UNL1        0.2226
     31 O         138.1200  144.4284  162.3753 O.2     1  UNL1       -0.2751
     32 H         140.5828  145.5776  164.5578 H       1  UNL1        0.1495
@<TRIPOS>BOND
     1    28    29    1
     2    29    30   am
     3    30    31    2
     4    30    27    1
     5    27    26    1
     6    26    25    1
     7    25    21    1
     8    21    22    1
     9    21    23   am
    10    23    24    2
    11    23     1    1
    12     1     2   ar
    13     2     3   ar
    14     3     4   ar
    15     4     5   ar
    16     5     6   ar
    17     5     7   ar
    18     7     8   ar
    19     8     9   ar
    20     9    10    1
    21     8    11    1
    22    11    12    1
    23    12    13    1
    24    13    15    1
    25    15    16    1
    26    16    17    1
    27    17    18    1
    28    18    19    1
    29    19    20    1
    30    13    14    1
    31     6     1   ar
    32    14     7    1
    33     9     4   ar
    34    20    15    1
    35    29    32    1
@<TRIPOS>MOLECULE
*****
 32 35 0 0 0
SMALL
GASTEIGER

@<TRIPOS>ATOM
      1 C         141.9858  140.9799  159.9539 C.ar    1  UNL1        0.0537
      2 C         141.5101  142.1880  159.2028 C.ar    1  UNL1        0.0060
      3 C         140.8747  143.3283  159.9416 C.ar    1  UNL1        0.0173
      4 C         140.7148  143.2606  161.4315 C.ar    1  UNL1        0.0594
      5 C         141.1905  142.0525  162.1826 C.ar    1  UNL1        0.0130
      6 C         141.8260  140.9121  161.4438 C.ar    1  UNL1        0.0057
      7 C         140.9008  142.2680  163.6386 C.ar    1  UNL1       -0.0091
      8 C         140.2461  143.6094  163.7872 C.ar    1  UNL1        0.0331
      9 N         140.1312  144.2228  162.4232 N.ar    1  UNL1       -0.3289
     10 C         139.5369  145.5631  162.1065 C.3     1  UNL1        0.1301
     11 C         139.8392  144.0989  165.1454 C.3     1  UNL1        0.0435
     12 C         140.0870  143.2471  166.3549 C.3     1  UNL1        0.0066
     13 C         140.7417  141.9058  166.2063 C.3     1  UNL1        0.0049
     14 C         141.1486  141.4162  164.8480 C.3     1  UNL1        0.0275
     15 C         140.9895  141.0539  167.4158 C.3     1  UNL1        0.0053
     16 C         139.9445  140.9500  168.4868 C.3     1  UNL1        0.0322
     17 C         140.1923  140.0982  169.6964 C.3     1  UNL1        0.1422
     18 O         141.4852  139.3503  169.8349 O.3     1  UNL1       -0.3538
     19 C         142.5302  139.4542  168.7639 C.3     1  UNL1        0.1422
     20 C         142.2824  140.3060  167.5543 C.3     1  UNL1        0.0322
     21 N         141.7654  138.7577  158.6261 N.am    1  UNL1       -0.2743
     22 C         142.4009  137.6174  157.8873 C.3     1  UNL1        0.1152
     23 C         142.6213  139.8396  159.2151 C.2     1  UNL1        0.2491
     24 O         144.1126  139.7811  159.0654 O.2     1  UNL1       -0.2699
     25 C         140.2740  138.8161  158.7758 C.3     1  UNL1        0.0943
     26 C         139.5972  138.0262  159.8565 C.3     1  UNL1        0.0311
     27 C         139.0236  138.7283  161.0515 C.3     1  UNL1        0.0868
     28 C         138.9867  138.3556  165.0024 C.3     1  UNL1        0.1107
     29 N         138.6456  138.8274  163.6200 N.am    1  UNL1       -0.3027
     30 C         139.3647  138.2565  162.4339 C.2     1  UNL1        0.2226
     31 O         140.4250  137.2137  162.6302 O.2     1  UNL1       -0.2751
     32 H         137.9497  139.5118  163.4911 H       1  UNL1        0.1495
@<TRIPOS>BOND
     1    28    29    1
     2    29    30   am
     3    30    31    2
     4    30    27    1
     5    27    26    1
     6    26    25    1
     7    25    21    1
     8    21    22    1
     9    21    23   am
    10    23    24    2
    11    23     1    1
    12     1     2   ar
    13     2     3   ar
    14     3     4   ar
    15     4     5   ar
    16     5     6   ar
    17     5     7   ar
    18     7     8   ar
    19     8     9   ar
    20     9    10    1
    21     8    11    1
    22    11    12    1
    23    12    13    1
    24    13    15    1
    25    15    16    1
    26    16    17    1
    27    17    18    1
    28    18    19    1
    29    19    20    1
    30    13    14    1
    31     6     1   ar
    32    14     7    1
    33     9     4   ar
    34    20    15    1
    35    29    32    1
@<TRIPOS>MOLECULE
*****
 32 35 0 0 0
SMALL
GASTEIGER

@<TRIPOS>ATOM
      1 C         141.6601  141.5440  160.6458 C.ar    1  UNL1        0.0537
      2 C         140.8090  140.7102  159.7346 C.ar    1  UNL1        0.0060
      3 C         139.7435  139.8231  160.3070 C.ar    1  UNL1        0.0173
      4 C         139.5291  139.7697  161.7906 C.ar    1  UNL1        0.0594
      5 C         140.3802  140.6035  162.7018 C.ar    1  UNL1        0.0130
      6 C         141.4457  141.4907  162.1294 C.ar    1  UNL1        0.0057
      7 C         139.9404  140.3448  164.1124 C.ar    1  UNL1       -0.0091
      8 C         138.8175  139.3511  164.0730 C.ar    1  UNL1        0.0331
      9 N         138.5633  138.9957  162.6380 N.ar    1  UNL1       -0.3289
     10 C         137.5255  138.0349  162.1382 C.3     1  UNL1        0.1301
     11 C         138.1716  138.8983  165.3487 C.3     1  UNL1        0.0435
     12 C         138.6486  139.4392  166.6640 C.3     1  UNL1        0.0066
     13 C         139.7715  140.4329  166.7034 C.3     1  UNL1        0.0049
     14 C         140.4174  140.8857  165.4276 C.3     1  UNL1        0.0275
     15 C         140.2485  140.9738  168.0187 C.3     1  UNL1        0.0053
     16 C         140.8781  142.3335  168.0865 C.3     1  UNL1        0.0322
     17 C         141.3551  142.8744  169.4018 C.3     1  UNL1        0.1422
     18 O         141.2024  142.0555  170.6493 O.3     1  UNL1       -0.3538
     19 C         140.5728  140.6958  170.5815 C.3     1  UNL1        0.1422
     20 C         140.0958  140.1549  169.2662 C.3     1  UNL1        0.0322
     21 N         143.9384  141.8273  159.4296 N.am    1  UNL1       -0.2743
     22 C         145.0039  142.7144  158.8572 C.3     1  UNL1        0.1152
     23 C         142.7256  142.4311  160.0733 C.2     1  UNL1        0.2491
     24 O         142.5783  143.9222  160.1446 O.2     1  UNL1       -0.2699
     25 C         144.0857  140.3362  159.3583 C.3     1  UNL1        0.0943
     26 C         144.3704  139.5502  160.6038 C.3     1  UNL1        0.0311
     27 C         143.5820  138.3100  160.9046 C.3     1  UNL1        0.0868
     28 C         141.3061  136.9855  163.8738 C.3     1  UNL1        0.1107
     29 N         141.8364  137.2201  162.4903 N.am    1  UNL1       -0.3027
     30 C         143.0518  138.0755  162.2880 C.2     1  UNL1        0.2226
     31 O         143.7369  138.6965  163.4691 O.2     1  UNL1       -0.2751
     32 H         141.3867  136.8125  161.7151 H       1  UNL1        0.1495
@<TRIPOS>BOND
     1    28    29    1
     2    29    30   am
     3    30    31    2
     4    30    27    1
     5    27    26    1
     6    26    25    1
     7    25    21    1
     8    21    22    1
     9    21    23   am
    10    23    24    2
    11    23     1    1
    12     1     2   ar
    13     2     3   ar
    14     3     4   ar
    15     4     5   ar
    16     5     6   ar
    17     5     7   ar
    18     7     8   ar
    19     8     9   ar
    20     9    10    1
    21     8    11    1
    22    11    12    1
    23    12    13    1
    24    13    15    1
    25    15    16    1
    26    16    17    1
    27    17    18    1
    28    18    19    1
    29    19    20    1
    30    13    14    1
    31     6     1   ar
    32    14     7    1
    33     9     4   ar
    34    20    15    1
    35    29    32    1
