@<TRIPOS>MOLECULE
*****
 34 37 0 0 0
SMALL
GASTEIGER

@<TRIPOS>ATOM
      1 C         139.7869  142.4688  163.6641 C.ar    1  UNL1        0.0729
      2 C         140.7757  143.1534  164.5605 C.ar    1  UNL1        0.1048
      3 N         141.0857  142.5800  165.9114 N.ar    1  UNL1       -0.2290
      4 C         140.4069  141.3219  166.3659 C.ar    1  UNL1        0.1330
      5 C         139.4182  140.6373  165.4695 C.ar    1  UNL1        0.0501
      6 C         139.1082  141.2108  164.1186 C.ar    1  UNL1        0.0102
      7 N         140.7170  140.7485  167.7169 N.pl3   1  UNL1       -0.2907
      8 C         141.8269  139.7908  168.0346 C.3     1  UNL1        0.0948
      9 C         141.7675  139.4825  169.5014 C.3     1  UNL1        0.0524
     10 C         140.6207  140.2496  170.0902 C.3     1  UNL1        0.1319
     11 O         140.1975  140.2366  171.5292 O.3     1  UNL1       -0.3827
     12 C         139.9715  141.0320  168.9873 C.3     1  UNL1        0.1213
     13 H         140.7830  139.6499  172.0331 H       1  UNL1        0.2104
     14 C         138.7394  139.3793  165.9240 C.2     1  UNL1        0.1213
     15 N         137.7313  139.2713  167.0295 N.2     1  UNL1       -0.1493
     16 N         137.3184  137.8336  167.1416 N.2     1  UNL1       -0.1481
     17 C         138.0712  137.0530  166.1053 C.2     1  UNL1        0.1369
     18 C         138.9494  138.0083  165.3528 C.3     1  UNL1        0.2451
     19 F         139.8752  137.6546  164.2267 F       1  UNL1       -0.2240
     20 O         138.1267  143.6371  162.0427 O.2     1  UNL1       -0.2698
     21 C         139.4769  143.0422  162.3131 C.2     1  UNL1        0.2510
     22 N         140.5170  143.0208  161.2325 N.am    1  UNL1       -0.2803
     23 H         141.4032  142.6303  161.4100 H       1  UNL1        0.1552
     24 C         140.2070  143.5942  159.8815 C.ar    1  UNL1        0.0507
     25 C         139.5094  142.7548  158.8526 C.ar    1  UNL1        0.0178
     26 C         139.1994  143.3283  157.5017 C.ar    1  UNL1        0.0384
     27 C         139.5870  144.7411  157.1797 C.ar    1  UNL1        0.1453
     28 C         140.2846  145.5805  158.2086 C.ar    1  UNL1        0.0384
     29 C         140.5946  145.0070  159.5595 C.ar    1  UNL1        0.0178
     30 O         139.2770  145.3145  155.8287 O.3     1  UNL1       -0.4184
     31 C         139.8010  146.6680  155.4502 C.3     1  UNL1        0.4893
     32 F         140.3251  148.0216  155.0717 F       1  UNL1       -0.1486
     33 F         138.6050  147.3097  156.0886 F       1  UNL1       -0.1486
     34 CL        140.9971  146.0264  154.8117 Cl      1  UNL1        0.0004
@<TRIPOS>BOND
     1    20    21    2
     2    21    22   am
     3    22    24    1
     4    24    25   ar
     5    25    26   ar
     6    26    27   ar
     7    27    30    1
     8    30    31    1
     9    31    32    1
    10    31    33    1
    11    31    34    1
    12    27    28   ar
    13    28    29   ar
    14    21     1    1
    15     1     2   ar
    16     2     3   ar
    17     3     4   ar
    18     4     7    1
    19     7     8    1
    20     8     9    1
    21     9    10    1
    22    10    11    1
    23    10    12    1
    24     4     5   ar
    25     5    14    1
    26    14    15    2
    27    15    16    1
    28    16    17    2
    29    17    18    1
    30    18    19    1
    31     5     6   ar
    32    29    24   ar
    33     6     1   ar
    34    12     7    1
    35    18    14    1
    36    22    23    1
    37    11    13    1
@<TRIPOS>MOLECULE
*****
 34 37 0 0 0
SMALL
GASTEIGER

@<TRIPOS>ATOM
      1 C         140.9466  138.2596  160.6261 C.ar    1  UNL1        0.0729
      2 C         139.5791  138.6511  160.1501 C.ar    1  UNL1        0.1048
      3 N         139.2864  138.7153  158.6804 N.ar    1  UNL1       -0.2290
      4 C         140.3612  138.3878  157.6866 C.ar    1  UNL1        0.1330
      5 C         141.7287  137.9963  158.1625 C.ar    1  UNL1        0.0501
      6 C         142.0214  137.9321  159.6323 C.ar    1  UNL1        0.0102
      7 N         140.0684  138.4520  156.2168 N.pl3   1  UNL1       -0.2907
      8 C         140.3012  139.6333  155.3222 C.3     1  UNL1        0.0948
      9 C         139.8681  139.2576  153.9361 C.3     1  UNL1        0.0524
     10 C         139.3677  137.8440  153.9741 C.3     1  UNL1        0.1319
     11 O         138.8367  137.0651  152.8073 O.3     1  UNL1       -0.3827
     12 C         139.4915  137.3462  155.3836 C.3     1  UNL1        0.1213
     13 H         138.8641  137.6174  152.0104 H       1  UNL1        0.2104
     14 C         142.8035  137.6688  157.1687 C.2     1  UNL1        0.1213
     15 N         143.8351  138.6208  156.6399 N.2     1  UNL1       -0.1493
     16 N         144.7045  137.8723  155.6736 N.2     1  UNL1       -0.1481
     17 C         144.2103  136.4577  155.6052 C.2     1  UNL1        0.1369
     18 C         143.0354  136.3320  156.5292 C.3     1  UNL1        0.2451
     19 F         142.2333  135.0878  156.7712 F       1  UNL1       -0.2240
     20 O         141.0055  136.9214  162.8523 O.2     1  UNL1       -0.2698
     21 C         141.2394  138.1954  162.0959 C.2     1  UNL1        0.2510
     22 N         141.7661  139.4052  162.8092 N.am    1  UNL1       -0.2803
     23 H         141.9197  140.2414  162.3127 H       1  UNL1        0.1552
     24 C         142.0589  139.3410  164.2790 C.ar    1  UNL1        0.0507
     25 C         141.0435  139.8314  165.2681 C.ar    1  UNL1        0.0178
     26 C         141.3363  139.7672  166.7378 C.ar    1  UNL1        0.0384
     27 C         142.6445  139.2127  167.2184 C.ar    1  UNL1        0.1453
     28 C         143.6600  138.7223  166.2293 C.ar    1  UNL1        0.0384
     29 C         143.3672  138.7865  164.7596 C.ar    1  UNL1        0.0178
     30 O         142.9373  139.1485  168.6882 O.3     1  UNL1       -0.4184
     31 C         142.5186  140.2746  169.5862 C.3     1  UNL1        0.4893
     32 F         142.0999  141.4009  170.4842 F       1  UNL1       -0.1486
     33 F         143.4768  141.1907  168.8843 F       1  UNL1       -0.1486
     34 CL        141.5604  139.3586  170.2882 Cl      1  UNL1        0.0004
@<TRIPOS>BOND
     1    20    21    2
     2    21    22   am
     3    22    24    1
     4    24    25   ar
     5    25    26   ar
     6    26    27   ar
     7    27    30    1
     8    30    31    1
     9    31    32    1
    10    31    33    1
    11    31    34    1
    12    27    28   ar
    13    28    29   ar
    14    21     1    1
    15     1     2   ar
    16     2     3   ar
    17     3     4   ar
    18     4     7    1
    19     7     8    1
    20     8     9    1
    21     9    10    1
    22    10    11    1
    23    10    12    1
    24     4     5   ar
    25     5    14    1
    26    14    15    2
    27    15    16    1
    28    16    17    2
    29    17    18    1
    30    18    19    1
    31     5     6   ar
    32    29    24   ar
    33     6     1   ar
    34    12     7    1
    35    18    14    1
    36    22    23    1
    37    11    13    1
@<TRIPOS>MOLECULE
*****
 34 37 0 0 0
SMALL
GASTEIGER

@<TRIPOS>ATOM
      1 C         141.4852  138.1914  161.5491 C.ar    1  UNL1        0.0729
      2 C         142.8251  137.6375  161.1646 C.ar    1  UNL1        0.1048
      3 N         143.2099  137.5418  159.7180 N.ar    1  UNL1       -0.2290
      4 C         142.2550  138.0001  158.6560 C.ar    1  UNL1        0.1330
      5 C         140.9151  138.5539  159.0405 C.ar    1  UNL1        0.0501
      6 C         140.5302  138.6496  160.4870 C.ar    1  UNL1        0.0102
      7 N         142.6399  137.9044  157.2093 N.pl3   1  UNL1       -0.2907
      8 C         143.3275  138.9695  156.4076 C.3     1  UNL1        0.0948
      9 C         143.5174  138.4503  155.0132 C.3     1  UNL1        0.0524
     10 C         142.9472  137.0641  154.9532 C.3     1  UNL1        0.1319
     11 O         142.9235  136.1720  153.7475 O.3     1  UNL1       -0.3827
     12 C         142.4049  136.7268  156.3104 C.3     1  UNL1        0.1213
     13 H         143.3376  136.6291  152.9989 H       1  UNL1        0.2104
     14 C         139.9601  139.0122  157.9784 C.2     1  UNL1        0.1213
     15 N         139.2476  138.1325  156.9943 N.2     1  UNL1       -0.1493
     16 N         138.3971  139.0072  156.1216 N.2     1  UNL1       -0.1481
     17 C         138.5840  140.4275  156.5663 C.2     1  UNL1        0.1369
     18 C         139.5500  140.4306  157.7139 C.3     1  UNL1        0.2451
     19 F         140.0228  141.6398  158.4650 F       1  UNL1       -0.2240
     20 O         141.1556  137.0685  163.8688 O.2     1  UNL1       -0.2698
     21 C         141.1002  138.2871  162.9958 C.2     1  UNL1        0.2510
     22 N         140.6599  139.6012  163.5694 N.am    1  UNL1       -0.2803
     23 H         140.6235  140.4010  162.9964 H       1  UNL1        0.1552
     24 C         140.2749  139.6969  165.0160 C.ar    1  UNL1        0.0507
     25 C         138.9773  139.1102  165.4872 C.ar    1  UNL1        0.0178
     26 C         138.5925  139.2059  166.9338 C.ar    1  UNL1        0.0384
     27 C         139.5051  139.8883  167.9092 C.ar    1  UNL1        0.1453
     28 C         140.8027  140.4750  167.4380 C.ar    1  UNL1        0.0384
     29 C         141.1876  140.3793  165.9914 C.ar    1  UNL1        0.0178
     30 O         139.1202  139.9840  169.3558 O.3     1  UNL1       -0.4184
     31 C         140.0975  140.5229  170.3580 C.3     1  UNL1        0.4893
     32 F         141.0750  141.0618  171.3601 F       1  UNL1       -0.1486
     33 F         140.7889  139.1924  170.3992 F       1  UNL1       -0.1486
     34 CL        139.4062  141.8534  170.3167 Cl      1  UNL1        0.0004
@<TRIPOS>BOND
     1    20    21    2
     2    21    22   am
     3    22    24    1
     4    24    25   ar
     5    25    26   ar
     6    26    27   ar
     7    27    30    1
     8    30    31    1
     9    31    32    1
    10    31    33    1
    11    31    34    1
    12    27    28   ar
    13    28    29   ar
    14    21     1    1
    15     1     2   ar
    16     2     3   ar
    17     3     4   ar
    18     4     7    1
    19     7     8    1
    20     8     9    1
    21     9    10    1
    22    10    11    1
    23    10    12    1
    24     4     5   ar
    25     5    14    1
    26    14    15    2
    27    15    16    1
    28    16    17    2
    29    17    18    1
    30    18    19    1
    31     5     6   ar
    32    29    24   ar
    33     6     1   ar
    34    12     7    1
    35    18    14    1
    36    22    23    1
    37    11    13    1
@<TRIPOS>MOLECULE
*****
 34 37 0 0 0
SMALL
GASTEIGER

@<TRIPOS>ATOM
      1 C         142.4674  142.9553  163.9833 C.ar    1  UNL1        0.0729
      2 C         143.5375  143.2546  164.9909 C.ar    1  UNL1        0.1048
      3 N         143.5286  142.5633  166.3220 N.ar    1  UNL1       -0.2290
      4 C         142.4497  141.5728  166.6456 C.ar    1  UNL1        0.1330
      5 C         141.3796  141.2735  165.6380 C.ar    1  UNL1        0.0501
      6 C         141.3885  141.9647  164.3068 C.ar    1  UNL1        0.0102
      7 N         142.4408  140.8815  167.9768 N.pl3   1  UNL1       -0.2907
      8 C         142.6416  139.4133  168.2092 C.3     1  UNL1        0.0948
      9 C         142.5545  139.1614  169.6854 C.3     1  UNL1        0.0524
     10 C         142.2998  140.4740  170.3653 C.3     1  UNL1        0.1319
     11 O         142.1430  140.6863  171.8419 O.3     1  UNL1       -0.3827
     12 C         142.2296  141.5371  169.3093 C.3     1  UNL1        0.1213
     13 H         142.2316  139.8369  172.3019 H       1  UNL1        0.2104
     14 C         140.3006  140.2829  165.9615 C.2     1  UNL1        0.1213
     15 N         139.3324  140.3753  167.1035 N.2     1  UNL1       -0.1493
     16 N         138.4339  139.1756  167.0476 N.2     1  UNL1       -0.1481
     17 C         138.8467  138.3416  165.8712 C.2     1  UNL1        0.1369
     18 C         140.0004  139.0260  165.1999 C.3     1  UNL1        0.2451
     19 F         140.7265  138.5389  163.9811 F       1  UNL1       -0.2240
     20 O         143.5003  144.7038  162.3628 O.2     1  UNL1       -0.2698
     21 C         142.4763  143.6465  162.6520 C.2     1  UNL1        0.2510
     22 N         141.4612  143.2805  161.6101 N.am    1  UNL1       -0.2803
     23 H         140.7892  142.5866  161.8000 H       1  UNL1        0.1552
     24 C         141.4701  143.9718  160.2789 C.ar    1  UNL1        0.0507
     25 C         140.4260  145.0008  159.9612 C.ar    1  UNL1        0.0178
     26 C         140.4349  145.6920  158.6300 C.ar    1  UNL1        0.0384
     27 C         141.4879  145.3542  157.6165 C.ar    1  UNL1        0.1453
     28 C         142.5319  144.3251  157.9342 C.ar    1  UNL1        0.0384
     29 C         142.5230  143.6339  159.2654 C.ar    1  UNL1        0.0178
     30 O         141.4967  146.0455  156.2852 O.3     1  UNL1       -0.4184
     31 C         140.3947  145.7901  155.3002 C.3     1  UNL1        0.4893
     32 F         139.2926  145.5347  154.3151 F       1  UNL1       -0.1486
     33 F         140.8743  144.3792  155.1294 F       1  UNL1       -0.1486
     34 CL        139.9151  147.2010  155.4710 Cl      1  UNL1        0.0004
@<TRIPOS>BOND
     1    20    21    2
     2    21    22   am
     3    22    24    1
     4    24    25   ar
     5    25    26   ar
     6    26    27   ar
     7    27    30    1
     8    30    31    1
     9    31    32    1
    10    31    33    1
    11    31    34    1
    12    27    28   ar
    13    28    29   ar
    14    21     1    1
    15     1     2   ar
    16     2     3   ar
    17     3     4   ar
    18     4     7    1
    19     7     8    1
    20     8     9    1
    21     9    10    1
    22    10    11    1
    23    10    12    1
    24     4     5   ar
    25     5    14    1
    26    14    15    2
    27    15    16    1
    28    16    17    2
    29    17    18    1
    30    18    19    1
    31     5     6   ar
    32    29    24   ar
    33     6     1   ar
    34    12     7    1
    35    18    14    1
    36    22    23    1
    37    11    13    1
@<TRIPOS>MOLECULE
*****
 34 37 0 0 0
SMALL
GASTEIGER

@<TRIPOS>ATOM
      1 C         140.1342  143.4104  163.4716 C.ar    1  UNL1        0.0729
      2 C         139.5508  144.0881  164.6759 C.ar    1  UNL1        0.1048
      3 N         139.8125  143.5377  166.0464 N.ar    1  UNL1       -0.2290
      4 C         140.6577  142.3096  166.2127 C.ar    1  UNL1        0.1330
      5 C         141.2410  141.6320  165.0084 C.ar    1  UNL1        0.0501
      6 C         140.9793  142.1823  163.6379 C.ar    1  UNL1        0.0102
      7 N         140.9194  141.7593  167.5834 N.pl3   1  UNL1       -0.2907
      8 C         142.0478  142.1518  168.4904 C.3     1  UNL1        0.0948
      9 C         141.9245  141.3550  169.7553 C.3     1  UNL1        0.0524
     10 C         140.7199  140.4700  169.6299 C.3     1  UNL1        0.1319
     11 O         140.2236  139.5045  170.6652 O.3     1  UNL1       -0.3827
     12 C         140.0987  140.7199  168.2877 C.3     1  UNL1        0.1213
     13 H         140.8046  139.5357  171.4413 H       1  UNL1        0.2104
     14 C         142.0862  140.4039  165.1747 C.2     1  UNL1        0.1213
     15 N         141.5813  139.0121  165.4154 N.2     1  UNL1       -0.1493
     16 N         142.7676  138.1000  165.5190 N.2     1  UNL1       -0.1481
     17 C         144.0058  138.9282  165.3423 C.2     1  UNL1        0.1369
     18 C         143.5846  140.3520  165.1295 C.3     1  UNL1        0.2451
     19 F         144.5010  141.5191  164.9101 F       1  UNL1       -0.2240
     20 O         138.8604  145.0515  161.9114 O.2     1  UNL1       -0.2698
     21 C         139.8724  143.9607  162.1009 C.2     1  UNL1        0.2510
     22 N         140.6227  143.4203  160.9198 N.am    1  UNL1       -0.2803
     23 H         141.2869  142.7043  161.0442 H       1  UNL1        0.1552
     24 C         140.3610  143.9706  159.5492 C.ar    1  UNL1        0.0507
     25 C         141.0231  145.2440  159.1132 C.ar    1  UNL1        0.0178
     26 C         140.7614  145.7942  157.7426 C.ar    1  UNL1        0.0384
     27 C         139.8375  145.0712  156.8079 C.ar    1  UNL1        0.1453
     28 C         139.1753  143.7978  157.2439 C.ar    1  UNL1        0.0384
     29 C         139.4371  143.2476  158.6145 C.ar    1  UNL1        0.0178
     30 O         139.5757  145.6215  155.4372 O.3     1  UNL1       -0.4184
     31 C         139.6223  147.1022  155.2021 C.3     1  UNL1        0.4893
     32 F         139.6688  148.5830  154.9670 F       1  UNL1       -0.1486
     33 F         138.5203  147.2956  156.2012 F       1  UNL1       -0.1486
     34 CL        140.7242  146.9089  154.2030 Cl      1  UNL1        0.0004
@<TRIPOS>BOND
     1    20    21    2
     2    21    22   am
     3    22    24    1
     4    24    25   ar
     5    25    26   ar
     6    26    27   ar
     7    27    30    1
     8    30    31    1
     9    31    32    1
    10    31    33    1
    11    31    34    1
    12    27    28   ar
    13    28    29   ar
    14    21     1    1
    15     1     2   ar
    16     2     3   ar
    17     3     4   ar
    18     4     7    1
    19     7     8    1
    20     8     9    1
    21     9    10    1
    22    10    11    1
    23    10    12    1
    24     4     5   ar
    25     5    14    1
    26    14    15    2
    27    15    16    1
    28    16    17    2
    29    17    18    1
    30    18    19    1
    31     5     6   ar
    32    29    24   ar
    33     6     1   ar
    34    12     7    1
    35    18    14    1
    36    22    23    1
    37    11    13    1
@<TRIPOS>MOLECULE
*****
 34 37 0 0 0
SMALL
GASTEIGER

@<TRIPOS>ATOM
      1 C         141.1803  144.1220  159.0128 C.ar    1  UNL1        0.0729
      2 C         142.3843  143.2284  158.9705 C.ar    1  UNL1        0.1048
      3 N         142.4821  142.0571  159.9024 N.ar    1  UNL1       -0.2290
      4 C         141.3759  141.7795  160.8767 C.ar    1  UNL1        0.1330
      5 C         140.1719  142.6730  160.9190 C.ar    1  UNL1        0.0501
      6 C         140.0741  143.8443  159.9870 C.ar    1  UNL1        0.0102
      7 N         141.4737  140.6081  161.8086 N.pl3   1  UNL1       -0.2907
      8 C         141.9788  140.6446  163.2206 C.3     1  UNL1        0.0948
      9 C         141.9009  139.2538  163.7769 C.3     1  UNL1        0.0524
     10 C         141.3476  138.3577  162.7087 C.3     1  UNL1        0.1319
     11 O         141.1015  136.8834  162.8348 O.3     1  UNL1       -0.3827
     12 C         141.0835  139.1947  161.4923 C.3     1  UNL1        0.1213
     13 H         141.3564  136.5878  163.7228 H       1  UNL1        0.2104
     14 C         139.0656  142.3954  161.8932 C.2     1  UNL1        0.1213
     15 N         137.7878  141.6695  161.5929 N.2     1  UNL1       -0.1493
     16 N         136.9754  141.6203  162.8529 N.2     1  UNL1       -0.1481
     17 C         137.7512  142.3159  163.9320 C.2     1  UNL1        0.1369
     18 C         139.0430  142.7949  163.3389 C.3     1  UNL1        0.2451
     19 F         140.1226  143.5422  164.0641 F       1  UNL1       -0.2240
     20 O         142.2260  146.2571  157.9650 O.2     1  UNL1       -0.2698
     21 C         141.0825  145.2933  158.0808 C.2     1  UNL1        0.2510
     22 N         139.8412  145.5008  157.2647 N.am    1  UNL1       -0.2803
     23 H         139.0907  144.8682  157.3408 H       1  UNL1        0.1552
     24 C         139.7434  146.6721  156.3328 C.ar    1  UNL1        0.0507
     25 C         140.4475  146.6380  155.0088 C.ar    1  UNL1        0.0178
     26 C         140.3497  147.8093  154.0769 C.ar    1  UNL1        0.0384
     27 C         139.5477  149.0147  154.4690 C.ar    1  UNL1        0.1453
     28 C         138.8435  149.0489  155.7930 C.ar    1  UNL1        0.0384
     29 C         138.9414  147.8776  156.7249 C.ar    1  UNL1        0.0178
     30 O         139.4499  150.1861  153.5371 O.3     1  UNL1       -0.4184
     31 C         139.7224  151.5717  154.0428 C.3     1  UNL1        0.4893
     32 F         139.9948  152.9574  154.5485 F       1  UNL1       -0.1486
     33 F         138.2499  151.8573  154.0537 F       1  UNL1       -0.1486
     34 CL        141.1948  151.2861  154.0319 Cl      1  UNL1        0.0004
@<TRIPOS>BOND
     1    20    21    2
     2    21    22   am
     3    22    24    1
     4    24    25   ar
     5    25    26   ar
     6    26    27   ar
     7    27    30    1
     8    30    31    1
     9    31    32    1
    10    31    33    1
    11    31    34    1
    12    27    28   ar
    13    28    29   ar
    14    21     1    1
    15     1     2   ar
    16     2     3   ar
    17     3     4   ar
    18     4     7    1
    19     7     8    1
    20     8     9    1
    21     9    10    1
    22    10    11    1
    23    10    12    1
    24     4     5   ar
    25     5    14    1
    26    14    15    2
    27    15    16    1
    28    16    17    2
    29    17    18    1
    30    18    19    1
    31     5     6   ar
    32    29    24   ar
    33     6     1   ar
    34    12     7    1
    35    18    14    1
    36    22    23    1
    37    11    13    1
@<TRIPOS>MOLECULE
*****
 34 37 0 0 0
SMALL
GASTEIGER

@<TRIPOS>ATOM
      1 C         141.4035  139.5150  158.8876 C.ar    1  UNL1        0.0729
      2 C         142.3989  140.6225  158.7070 C.ar    1  UNL1        0.1048
      3 N         142.2985  141.8645  159.5420 N.ar    1  UNL1       -0.2290
      4 C         141.2028  141.9991  160.5575 C.ar    1  UNL1        0.1330
      5 C         140.2075  140.8916  160.7381 C.ar    1  UNL1        0.0501
      6 C         140.3078  139.6495  159.9031 C.ar    1  UNL1        0.0102
      7 N         141.1025  143.2412  161.3925 N.pl3   1  UNL1       -0.2907
      8 C         141.6632  143.4242  162.7717 C.3     1  UNL1        0.0948
      9 C         141.3311  144.8144  163.2265 C.3     1  UNL1        0.0524
     10 C         140.5652  145.4908  162.1282 C.3     1  UNL1        0.1319
     11 O         140.0338  146.8932  162.1583 O.3     1  UNL1       -0.3827
     12 C         140.4239  144.5185  160.9948 C.3     1  UNL1        0.1213
     13 H         140.2611  147.3070  163.0056 H       1  UNL1        0.2104
     14 C         139.1117  141.0262  161.7536 C.2     1  UNL1        0.1213
     15 N         137.9007  141.9030  161.6331 N.2     1  UNL1       -0.1493
     16 N         137.0751  141.7263  162.8729 N.2     1  UNL1       -0.1481
     17 C         137.7760  140.7402  163.7598 C.2     1  UNL1        0.1369
     18 C         139.0346  140.3075  163.0680 C.3     1  UNL1        0.2451
     19 F         140.0398  139.3281  163.5976 F       1  UNL1       -0.2240
     20 O         140.2648  137.6550  157.4756 O.2     1  UNL1       -0.2698
     21 C         141.5039  138.2728  158.0527 C.2     1  UNL1        0.2510
     22 N         142.8432  137.6486  157.7948 N.am    1  UNL1       -0.2803
     23 H         143.6564  138.0542  158.1736 H       1  UNL1        0.1552
     24 C         142.9435  136.4065  156.9598 C.ar    1  UNL1        0.0507
     25 C         143.2522  135.0897  157.6085 C.ar    1  UNL1        0.0178
     26 C         143.3525  133.8477  156.7735 C.ar    1  UNL1        0.0384
     27 C         143.1442  133.9224  155.2899 C.ar    1  UNL1        0.1453
     28 C         142.8355  135.2392  154.6413 C.ar    1  UNL1        0.0384
     29 C         142.7352  136.4812  155.4763 C.ar    1  UNL1        0.0178
     30 O         143.2445  132.6802  154.4550 O.3     1  UNL1       -0.4184
     31 C         143.1115  131.3316  155.0979 C.3     1  UNL1        0.4893
     32 F         142.9785  129.9829  155.7409 F       1  UNL1       -0.1486
     33 F         144.6017  131.2578  155.2515 F       1  UNL1       -0.1486
     34 CL        141.6212  131.4054  154.9443 Cl      1  UNL1        0.0004
@<TRIPOS>BOND
     1    20    21    2
     2    21    22   am
     3    22    24    1
     4    24    25   ar
     5    25    26   ar
     6    26    27   ar
     7    27    30    1
     8    30    31    1
     9    31    32    1
    10    31    33    1
    11    31    34    1
    12    27    28   ar
    13    28    29   ar
    14    21     1    1
    15     1     2   ar
    16     2     3   ar
    17     3     4   ar
    18     4     7    1
    19     7     8    1
    20     8     9    1
    21     9    10    1
    22    10    11    1
    23    10    12    1
    24     4     5   ar
    25     5    14    1
    26    14    15    2
    27    15    16    1
    28    16    17    2
    29    17    18    1
    30    18    19    1
    31     5     6   ar
    32    29    24   ar
    33     6     1   ar
    34    12     7    1
    35    18    14    1
    36    22    23    1
    37    11    13    1
@<TRIPOS>MOLECULE
*****
 34 37 0 0 0
SMALL
GASTEIGER

@<TRIPOS>ATOM
      1 C         143.2435  139.6829  158.5529 C.ar    1  UNL1        0.0729
      2 C         143.4932  141.0837  158.0784 C.ar    1  UNL1        0.1048
      3 N         143.4821  142.2203  159.0571 N.ar    1  UNL1       -0.2290
      4 C         143.2212  141.9561  160.5104 C.ar    1  UNL1        0.1330
      5 C         142.9714  140.5552  160.9850 C.ar    1  UNL1        0.0501
      6 C         142.9826  139.4187  160.0062 C.ar    1  UNL1        0.0102
      7 N         143.2100  143.0927  161.4892 N.pl3   1  UNL1       -0.2907
      8 C         144.3918  143.6068  162.2569 C.3     1  UNL1        0.0948
      9 C         143.9274  144.7466  163.1143 C.3     1  UNL1        0.0524
     10 C         142.4586  144.9371  162.8764 C.3     1  UNL1        0.1319
     11 O         141.5863  145.9686  163.5284 O.3     1  UNL1       -0.3827
     12 C         142.0153  143.9149  161.8720 C.3     1  UNL1        0.1213
     13 H         142.1187  146.5043  164.1370 H       1  UNL1        0.2104
     14 C         142.7105  140.2910  162.4383 C.2     1  UNL1        0.1213
     15 N         141.3629  140.1312  163.0773 N.2     1  UNL1       -0.1493
     16 N         141.5709  139.8816  164.5417 N.2     1  UNL1       -0.1481
     17 C         143.0471  139.8871  164.8077 C.2     1  UNL1        0.1369
     18 C         143.7514  140.1402  163.5078 C.3     1  UNL1        0.2451
     19 F         145.2360  140.2271  163.3117 F       1  UNL1       -0.2240
     20 O         144.0743  138.6430  156.3217 O.2     1  UNL1       -0.2698
     21 C         143.2546  138.5462  157.5742 C.2     1  UNL1        0.2510
     22 N         142.4461  137.3128  157.8479 N.am    1  UNL1       -0.2803
     23 H         141.9081  137.2493  158.6700 H       1  UNL1        0.1552
     24 C         142.4572  136.1761  156.8691 C.ar    1  UNL1        0.0507
     25 C         143.5049  135.1077  156.9724 C.ar    1  UNL1        0.0178
     26 C         143.5160  133.9711  155.9937 C.ar    1  UNL1        0.0384
     27 C         142.4794  133.9029  154.9117 C.ar    1  UNL1        0.1453
     28 C         141.4317  134.9714  154.8084 C.ar    1  UNL1        0.0384
     29 C         141.4206  136.1080  155.7871 C.ar    1  UNL1        0.0178
     30 O         142.4905  132.7663  153.9329 O.3     1  UNL1       -0.4184
     31 C         142.3308  131.3563  154.4191 C.3     1  UNL1        0.4893
     32 F         142.1710  129.9463  154.9053 F       1  UNL1       -0.1486
     33 F         141.0138  131.7191  155.0385 F       1  UNL1       -0.1486
     34 CL        143.6478  130.9935  153.7996 Cl      1  UNL1        0.0004
@<TRIPOS>BOND
     1    20    21    2
     2    21    22   am
     3    22    24    1
     4    24    25   ar
     5    25    26   ar
     6    26    27   ar
     7    27    30    1
     8    30    31    1
     9    31    32    1
    10    31    33    1
    11    31    34    1
    12    27    28   ar
    13    28    29   ar
    14    21     1    1
    15     1     2   ar
    16     2     3   ar
    17     3     4   ar
    18     4     7    1
    19     7     8    1
    20     8     9    1
    21     9    10    1
    22    10    11    1
    23    10    12    1
    24     4     5   ar
    25     5    14    1
    26    14    15    2
    27    15    16    1
    28    16    17    2
    29    17    18    1
    30    18    19    1
    31     5     6   ar
    32    29    24   ar
    33     6     1   ar
    34    12     7    1
    35    18    14    1
    36    22    23    1
    37    11    13    1
@<TRIPOS>MOLECULE
*****
 34 37 0 0 0
SMALL
GASTEIGER

@<TRIPOS>ATOM
      1 C         142.7706  140.4927  161.8002 C.ar    1  UNL1        0.0729
      2 C         143.9829  139.6990  161.4125 C.ar    1  UNL1        0.1048
      3 N         144.0504  139.0427  160.0654 N.ar    1  UNL1       -0.2290
      4 C         142.9056  139.1802  159.1060 C.ar    1  UNL1        0.1330
      5 C         141.6933  139.9739  159.4936 C.ar    1  UNL1        0.0501
      6 C         141.6258  140.6302  160.8407 C.ar    1  UNL1        0.0102
      7 N         142.9732  138.5239  157.7588 N.pl3   1  UNL1       -0.2907
      8 C         142.5497  137.1208  157.4394 C.3     1  UNL1        0.0948
      9 C         142.7908  136.8851  155.9778 C.3     1  UNL1        0.0524
     10 C         143.3634  138.1426  155.3939 C.3     1  UNL1        0.1319
     11 O         143.7546  138.3508  153.9608 O.3     1  UNL1       -0.3827
     12 C         143.4761  139.1554  156.4946 C.3     1  UNL1        0.1213
     13 H         143.5807  137.5402  153.4572 H       1  UNL1        0.2104
     14 C         140.5485  140.1113  158.5342 C.2     1  UNL1        0.1213
     15 N         139.4025  139.1550  158.3862 N.2     1  UNL1       -0.1493
     16 N         138.4944  139.6818  157.3148 N.2     1  UNL1       -0.1481
     17 C         139.0793  140.9639  156.8006 C.2     1  UNL1        0.1369
     18 C         140.3488  141.2293  157.5543 C.3     1  UNL1        0.2451
     19 F         141.2587  142.4061  157.3617 F       1  UNL1       -0.2240
     20 O         143.4405  142.4316  163.3945 O.2     1  UNL1       -0.2698
     21 C         142.7031  141.1490  163.1473 C.2     1  UNL1        0.2510
     22 N         141.8981  140.5227  164.2472 N.am    1  UNL1       -0.2803
     23 H         141.4141  139.6809  164.0849 H       1  UNL1        0.1552
     24 C         141.8306  141.1791  165.5944 C.ar    1  UNL1        0.0507
     25 C         140.6495  142.0301  165.9556 C.ar    1  UNL1        0.0178
     26 C         140.5820  142.6864  167.3027 C.ar    1  UNL1        0.0384
     27 C         141.6956  142.4916  168.2886 C.ar    1  UNL1        0.1453
     28 C         142.8767  141.6405  167.9273 C.ar    1  UNL1        0.0384
     29 C         142.9442  140.9842  166.5802 C.ar    1  UNL1        0.0178
     30 O         141.6280  143.1479  169.6357 O.3     1  UNL1       -0.4184
     31 C         140.3181  143.2391  170.3607 C.3     1  UNL1        0.4893
     32 F         139.0081  143.3304  171.0857 F       1  UNL1       -0.1486
     33 F         140.2074  144.6854  169.9787 F       1  UNL1       -0.1486
     34 CL        140.4288  141.7928  170.7427 Cl      1  UNL1        0.0004
@<TRIPOS>BOND
     1    20    21    2
     2    21    22   am
     3    22    24    1
     4    24    25   ar
     5    25    26   ar
     6    26    27   ar
     7    27    30    1
     8    30    31    1
     9    31    32    1
    10    31    33    1
    11    31    34    1
    12    27    28   ar
    13    28    29   ar
    14    21     1    1
    15     1     2   ar
    16     2     3   ar
    17     3     4   ar
    18     4     7    1
    19     7     8    1
    20     8     9    1
    21     9    10    1
    22    10    11    1
    23    10    12    1
    24     4     5   ar
    25     5    14    1
    26    14    15    2
    27    15    16    1
    28    16    17    2
    29    17    18    1
    30    18    19    1
    31     5     6   ar
    32    29    24   ar
    33     6     1   ar
    34    12     7    1
    35    18    14    1
    36    22    23    1
    37    11    13    1
