@<TRIPOS>MOLECULE
*****
 44 47 0 0 0
SMALL
GASTEIGER

@<TRIPOS>ATOM
      1 C         138.8308  144.0397  164.6407 C.2     1  UNL1        0.2491
      2 O         137.6269  144.8029  165.1076 O.2     1  UNL1       -0.2699
      3 N         139.4911  144.4009  163.3432 N.am    1  UNL1       -0.2732
      4 C         140.6951  143.6376  162.8763 C.3     1  UNL1        0.1110
      5 C         141.3554  143.9989  161.5788 C.3     1  UNL1        0.0939
      6 N         140.8117  145.1235  160.7482 N.3     1  UNL1       -0.2698
      7 C         139.6078  145.8867  161.2151 C.3     1  UNL1        0.0939
      8 C         138.9475  145.5254  162.5126 C.3     1  UNL1        0.1110
      9 C         139.5757  140.3711  165.9585 C.ar    1  UNL1        0.0107
     10 C         139.0321  141.4956  165.1280 C.ar    1  UNL1        0.0032
     11 C         139.3745  142.9151  165.4713 C.ar    1  UNL1        0.0532
     12 C         140.2605  143.2100  166.6451 C.ar    1  UNL1        0.0032
     13 C         140.8041  142.0855  167.4756 C.ar    1  UNL1        0.0107
     14 C         140.4618  140.6660  167.1323 C.ar    1  UNL1        0.1255
     15 O         141.0054  139.5414  167.9629 O.3     1  UNL1       -0.5061
     16 H         141.5589  139.7257  168.6962 H       1  UNL1        0.2922
     17 C         138.0523  139.0133  166.5378 C.3     1  UNL1        0.0045
     18 C         139.2333  138.9516  165.6152 C.3     1  UNL1        0.0218
     19 C         140.4144  138.8899  164.6925 C.3     1  UNL1        0.0045
     20 C         138.8909  137.5321  165.2719 C.3     1  UNL1        0.0045
     21 C         141.6902  142.3804  168.6496 C.3     1  UNL1        0.0218
     22 C         140.4800  142.6071  169.5062 C.3     1  UNL1        0.0045
     23 C         142.9005  142.1536  167.7930 C.3     1  UNL1        0.0045
     24 C         142.5763  142.6752  169.8234 C.3     1  UNL1        0.0045
     25 C         141.4720  145.4848  159.4507 C.3     1  UNL1        0.0722
     26 C         141.6530  144.4438  158.3859 C.3     1  UNL1        0.0173
     27 C         140.5571  143.4585  158.1063 C.3     1  UNL1        0.0014
     28 C         140.8354  141.9864  158.1800 C.3     1  UNL1        0.0007
     29 C         142.0585  141.4889  158.8916 C.3     1  UNL1        0.0087
     30 C         141.9346  140.8678  160.2513 C.3     1  UNL1        0.0446
     31 C         143.0520  141.0040  161.2427 C.ar    1  UNL1       -0.0183
     32 C         143.0942  140.1171  162.4517 C.ar    1  UNL1       -0.0017
     33 C         144.2115  140.2533  163.4432 C.ar    1  UNL1        0.0293
     34 C         145.2866  141.2765  163.2257 C.ar    1  UNL1        0.1401
     35 F         146.4040  141.4128  164.2171 F       1  UNL1       -0.2042
     36 C         145.2444  142.1634  162.0167 C.ar    1  UNL1        0.0293
     37 C         144.1271  142.0271  161.0252 C.ar    1  UNL1       -0.0017
     38 C         140.6934  140.1103  160.6195 C.ar    1  UNL1       -0.0183
     39 C         140.5349  138.6796  160.1976 C.ar    1  UNL1       -0.0017
     40 C         139.2937  137.9221  160.5658 C.ar    1  UNL1        0.0293
     41 C         138.2109  138.5954  161.3560 C.ar    1  UNL1        0.1401
     42 F         136.9697  137.8379  161.7242 F       1  UNL1       -0.2042
     43 C         138.3693  140.0261  161.7779 C.ar    1  UNL1        0.0293
     44 C         139.6106  140.7835  161.4097 C.ar    1  UNL1       -0.0017
@<TRIPOS>BOND
     1    17    18    1
     2    18    19    1
     3    18    20    1
     4    18     9    1
     5     9    10   ar
     6    10    11   ar
     7    11     1    1
     8     1     2    2
     9     1     3   am
    10     3     4    1
    11     4     5    1
    12     5     6    1
    13     6    25    1
    14    25    26    1
    15    26    27    1
    16    27    28    1
    17    28    29    1
    18    29    30    1
    19    30    31    1
    20    31    32   ar
    21    32    33   ar
    22    33    34   ar
    23    34    35    1
    24    34    36   ar
    25    36    37   ar
    26    30    38    1
    27    38    39   ar
    28    39    40   ar
    29    40    41   ar
    30    41    42    1
    31    41    43   ar
    32    43    44   ar
    33     6     7    1
    34     7     8    1
    35    11    12   ar
    36    12    13   ar
    37    13    21    1
    38    21    22    1
    39    21    23    1
    40    21    24    1
    41    13    14   ar
    42    14    15    1
    43    14     9   ar
    44     8     3    1
    45    37    31   ar
    46    44    38   ar
    47    15    16    1
@<TRIPOS>MOLECULE
*****
 44 47 0 0 0
SMALL
GASTEIGER

@<TRIPOS>ATOM
      1 C         139.0056  144.0440  164.5950 C.2     1  UNL1        0.2491
      2 O         137.8385  144.8053  165.1501 O.2     1  UNL1       -0.2699
      3 N         139.6047  144.4440  163.2793 N.am    1  UNL1       -0.2732
      4 C         140.7719  143.6826  162.7242 C.3     1  UNL1        0.1110
      5 C         141.3710  144.0826  161.4085 C.3     1  UNL1        0.0939
      6 N         140.8030  145.2440  160.6479 N.3     1  UNL1       -0.2698
      7 C         139.6359  146.0054  161.2030 C.3     1  UNL1        0.0939
      8 C         139.0367  145.6054  162.5187 C.3     1  UNL1        0.1110
      9 C         139.6936  140.3253  165.7984 C.ar    1  UNL1        0.0107
     10 C         139.1256  141.4867  165.0379 C.ar    1  UNL1        0.0032
     11 C         139.5737  142.8825  165.3556 C.ar    1  UNL1        0.0532
     12 C         140.5897  143.1170  166.4338 C.ar    1  UNL1        0.0032
     13 C         141.1577  141.9555  167.1944 C.ar    1  UNL1        0.0107
     14 C         140.7097  140.5597  166.8767 C.ar    1  UNL1        0.1255
     15 O         141.2777  139.3983  167.6373 O.3     1  UNL1       -0.5061
     16 H         141.9124  139.5447  168.3108 H       1  UNL1        0.2922
     17 C         138.1153  139.0701  166.4568 C.3     1  UNL1        0.0045
     18 C         139.2456  138.9295  165.4807 C.3     1  UNL1        0.0218
     19 C         140.3759  138.7888  164.5047 C.3     1  UNL1        0.0045
     20 C         138.7975  137.5337  165.1630 C.3     1  UNL1        0.0045
     21 C         142.1738  142.1899  168.2727 C.3     1  UNL1        0.0218
     22 C         143.2673  142.1723  167.2462 C.3     1  UNL1        0.0045
     23 C         141.0803  142.2075  169.2992 C.3     1  UNL1        0.0045
     24 C         143.1898  142.4243  169.3510 C.3     1  UNL1        0.0045
     25 C         141.4021  145.6441  159.3322 C.3     1  UNL1        0.0722
     26 C         141.0048  144.9244  158.0774 C.3     1  UNL1        0.0173
     27 C         141.6464  143.6140  157.7293 C.3     1  UNL1        0.0014
     28 C         141.1661  142.3486  158.3758 C.3     1  UNL1        0.0007
     29 C         142.1557  141.3672  158.9304 C.3     1  UNL1        0.0087
     30 C         141.9738  140.8199  160.3150 C.3     1  UNL1        0.0446
     31 C         140.7166  140.0832  160.6712 C.ar    1  UNL1       -0.0183
     32 C         140.6078  138.6115  160.4019 C.ar    1  UNL1       -0.0017
     33 C         139.3506  137.8749  160.7581 C.ar    1  UNL1        0.0293
     34 C         138.2022  138.6099  161.3834 C.ar    1  UNL1        0.1401
     35 F         136.9450  137.8733  161.7395 F       1  UNL1       -0.2042
     36 C         138.3111  140.0815  161.6526 C.ar    1  UNL1        0.0293
     37 C         139.5682  140.8182  161.2965 C.ar    1  UNL1       -0.0017
     38 C         143.0491  141.0091  161.3436 C.ar    1  UNL1       -0.0183
     39 C         144.2171  141.9039  161.0517 C.ar    1  UNL1       -0.0017
     40 C         145.2924  142.0932  162.0802 C.ar    1  UNL1        0.0293
     41 C         145.1997  141.3877  163.4008 C.ar    1  UNL1        0.1401
     42 F         146.2750  141.5770  164.4293 F       1  UNL1       -0.2042
     43 C         144.0318  140.4929  163.6927 C.ar    1  UNL1        0.0293
     44 C         142.9564  140.3036  162.6641 C.ar    1  UNL1       -0.0017
@<TRIPOS>BOND
     1    17    18    1
     2    18    19    1
     3    18    20    1
     4    18     9    1
     5     9    10   ar
     6    10    11   ar
     7    11     1    1
     8     1     2    2
     9     1     3   am
    10     3     4    1
    11     4     5    1
    12     5     6    1
    13     6    25    1
    14    25    26    1
    15    26    27    1
    16    27    28    1
    17    28    29    1
    18    29    30    1
    19    30    31    1
    20    31    32   ar
    21    32    33   ar
    22    33    34   ar
    23    34    35    1
    24    34    36   ar
    25    36    37   ar
    26    30    38    1
    27    38    39   ar
    28    39    40   ar
    29    40    41   ar
    30    41    42    1
    31    41    43   ar
    32    43    44   ar
    33     6     7    1
    34     7     8    1
    35    11    12   ar
    36    12    13   ar
    37    13    21    1
    38    21    22    1
    39    21    23    1
    40    21    24    1
    41    13    14   ar
    42    14    15    1
    43    14     9   ar
    44     8     3    1
    45    37    31   ar
    46    44    38   ar
    47    15    16    1
@<TRIPOS>MOLECULE
*****
 44 47 0 0 0
SMALL
GASTEIGER

@<TRIPOS>ATOM
      1 C         138.8905  144.0719  164.6616 C.2     1  UNL1        0.2491
      2 O         137.6941  144.8343  165.1487 O.2     1  UNL1       -0.2699
      3 N         139.5392  144.4450  163.3616 N.am    1  UNL1       -0.2732
      4 C         140.7357  143.6825  162.8744 C.3     1  UNL1        0.1110
      5 C         141.3844  144.0556  161.5744 C.3     1  UNL1        0.0939
      6 N         140.8366  145.1911  160.7615 N.3     1  UNL1       -0.2698
      7 C         139.6402  145.9535  161.2487 C.3     1  UNL1        0.0939
      8 C         138.9915  145.5804  162.5487 C.3     1  UNL1        0.1110
      9 C         140.9010  142.0789  167.4429 C.ar    1  UNL1        0.0107
     10 C         140.3533  143.2143  166.6301 C.ar    1  UNL1        0.0032
     11 C         139.4383  142.9364  165.4744 C.ar    1  UNL1        0.0532
     12 C         139.0711  141.5230  165.1316 C.ar    1  UNL1        0.0032
     13 C         139.6188  140.3876  165.9444 C.ar    1  UNL1        0.0107
     14 C         140.5338  140.6655  167.1001 C.ar    1  UNL1        0.1255
     15 O         141.0816  139.5300  167.9129 O.3     1  UNL1       -0.5061
     16 H         140.8522  138.6471  167.6987 H       1  UNL1        0.2922
     17 C         140.6284  142.5093  169.5021 C.3     1  UNL1        0.0045
     18 C         141.8160  142.3568  168.5986 C.3     1  UNL1        0.0218
     19 C         143.0036  142.2043  167.6950 C.3     1  UNL1        0.0045
     20 C         142.7310  142.6347  169.7543 C.3     1  UNL1        0.0045
     21 C         139.2516  138.9742  165.6015 C.3     1  UNL1        0.0218
     22 C         140.4383  138.8874  164.6882 C.3     1  UNL1        0.0045
     23 C         138.0649  139.0610  166.5149 C.3     1  UNL1        0.0045
     24 C         138.8844  137.5608  165.2588 C.3     1  UNL1        0.0045
     25 C         141.4853  145.5642  159.4615 C.3     1  UNL1        0.0722
     26 C         140.9543  145.0107  158.1724 C.3     1  UNL1        0.0173
     27 C         141.4187  143.6707  157.6838 C.3     1  UNL1        0.0014
     28 C         141.0161  142.4248  158.4156 C.3     1  UNL1        0.0007
     29 C         142.0647  141.4698  158.9039 C.3     1  UNL1        0.0087
     30 C         141.9426  140.8542  160.2663 C.3     1  UNL1        0.0446
     31 C         140.7016  140.0988  160.6395 C.ar    1  UNL1       -0.0183
     32 C         140.5675  138.6499  160.2750 C.ar    1  UNL1       -0.0017
     33 C         139.3265  137.8944  160.6482 C.ar    1  UNL1        0.0293
     34 C         138.2197  138.5879  161.3859 C.ar    1  UNL1        0.1401
     35 F         136.9787  137.8324  161.7590 F       1  UNL1       -0.2042
     36 C         138.3538  140.0367  161.7503 C.ar    1  UNL1        0.0293
     37 C         139.5948  140.7921  161.3771 C.ar    1  UNL1       -0.0017
     38 C         143.0615  140.9941  161.2556 C.ar    1  UNL1       -0.0183
     39 C         144.1365  142.0162  161.0325 C.ar    1  UNL1       -0.0017
     40 C         145.2553  142.1561  162.0217 C.ar    1  UNL1        0.0293
     41 C         145.2992  141.2739  163.2341 C.ar    1  UNL1        0.1401
     42 F         146.4181  141.4138  164.2233 F       1  UNL1       -0.2042
     43 C         144.2242  140.2518  163.4572 C.ar    1  UNL1        0.0293
     44 C         143.1054  140.1119  162.4679 C.ar    1  UNL1       -0.0017
@<TRIPOS>BOND
     1    17    18    1
     2    18    19    1
     3    18    20    1
     4    18     9    1
     5     9    10   ar
     6    10    11   ar
     7    11     1    1
     8     1     2    2
     9     1     3   am
    10     3     4    1
    11     4     5    1
    12     5     6    1
    13     6    25    1
    14    25    26    1
    15    26    27    1
    16    27    28    1
    17    28    29    1
    18    29    30    1
    19    30    31    1
    20    31    32   ar
    21    32    33   ar
    22    33    34   ar
    23    34    35    1
    24    34    36   ar
    25    36    37   ar
    26    30    38    1
    27    38    39   ar
    28    39    40   ar
    29    40    41   ar
    30    41    42    1
    31    41    43   ar
    32    43    44   ar
    33     6     7    1
    34     7     8    1
    35    11    12   ar
    36    12    13   ar
    37    13    21    1
    38    21    22    1
    39    21    23    1
    40    21    24    1
    41    13    14   ar
    42    14    15    1
    43    14     9   ar
    44     8     3    1
    45    37    31   ar
    46    44    38   ar
    47    15    16    1
@<TRIPOS>MOLECULE
*****
 44 47 0 0 0
SMALL
GASTEIGER

@<TRIPOS>ATOM
      1 C         140.3351  145.3314  160.7121 C.2     1  UNL1        0.2491
      2 O         139.4462  146.3860  161.3016 O.2     1  UNL1       -0.2699
      3 N         141.4555  144.7543  161.5254 N.am    1  UNL1       -0.2732
      4 C         142.3444  143.6995  160.9358 C.3     1  UNL1        0.1110
      5 C         143.4648  143.1224  161.7492 C.3     1  UNL1        0.0939
      6 N         143.6964  143.6001  163.1522 N.3     1  UNL1       -0.2698
      7 C         142.8075  144.6547  163.7417 C.3     1  UNL1        0.0939
      8 C         141.6871  145.2318  162.9284 C.3     1  UNL1        0.1110
      9 C         140.0825  145.3103  156.7515 C.ar    1  UNL1        0.0107
     10 C         140.3141  145.7878  158.1545 C.ar    1  UNL1        0.0032
     11 C         140.1035  144.8537  159.3091 C.ar    1  UNL1        0.0532
     12 C         139.6614  143.4421  159.0607 C.ar    1  UNL1        0.0032
     13 C         139.4298  142.9645  157.6578 C.ar    1  UNL1        0.0107
     14 C         139.6404  143.8987  156.5032 C.ar    1  UNL1        0.1255
     15 O         139.4088  143.4210  155.1002 O.3     1  UNL1       -0.5061
     16 H         139.1327  142.5392  154.9451 H       1  UNL1        0.2922
     17 C         138.9058  146.7845  155.7809 C.3     1  UNL1        0.0045
     18 C         140.2931  146.2444  155.5969 C.3     1  UNL1        0.0218
     19 C         141.6803  145.7043  155.4130 C.3     1  UNL1        0.0045
     20 C         140.5037  147.1785  154.4423 C.3     1  UNL1        0.0045
     21 C         138.9877  141.5528  157.4094 C.3     1  UNL1        0.0218
     22 C         140.4190  141.1040  157.4121 C.3     1  UNL1        0.0045
     23 C         137.5565  142.0016  157.4067 C.3     1  UNL1        0.0045
     24 C         138.5455  140.1412  157.1610 C.3     1  UNL1        0.0045
     25 C         144.8168  143.0230  163.9656 C.3     1  UNL1        0.0722
     26 C         145.5903  141.8464  163.4484 C.3     1  UNL1        0.0173
     27 C         145.0934  140.4534  163.6990 C.3     1  UNL1        0.0014
     28 C         144.0573  140.2053  164.7549 C.3     1  UNL1        0.0007
     29 C         142.6009  140.3443  164.4239 C.3     1  UNL1        0.0087
     30 C         141.6969  141.1256  165.3306 C.3     1  UNL1        0.0446
     31 C         141.8950  141.0704  166.8165 C.ar    1  UNL1       -0.0183
     32 C         141.1959  140.0201  167.6278 C.ar    1  UNL1       -0.0017
     33 C         141.3940  139.9648  169.1136 C.ar    1  UNL1        0.0293
     34 C         142.2912  140.9599  169.7882 C.ar    1  UNL1        0.1401
     35 F         142.4893  140.9046  171.2740 F       1  UNL1       -0.2042
     36 C         142.9903  142.0101  168.9769 C.ar    1  UNL1        0.0293
     37 C         142.7922  142.0654  167.4910 C.ar    1  UNL1       -0.0017
     38 C         140.5948  141.9624  164.7515 C.ar    1  UNL1       -0.0183
     39 C         140.1223  141.7143  163.3497 C.ar    1  UNL1       -0.0017
     40 C         139.0202  142.5509  162.7706 C.ar    1  UNL1        0.0293
     41 C         138.3906  143.6357  163.5933 C.ar    1  UNL1        0.1401
     42 F         137.2885  144.4723  163.0142 F       1  UNL1       -0.2042
     43 C         138.8630  143.8837  164.9952 C.ar    1  UNL1        0.0293
     44 C         139.9652  143.0470  165.5743 C.ar    1  UNL1       -0.0017
@<TRIPOS>BOND
     1    17    18    1
     2    18    19    1
     3    18    20    1
     4    18     9    1
     5     9    10   ar
     6    10    11   ar
     7    11     1    1
     8     1     2    2
     9     1     3   am
    10     3     4    1
    11     4     5    1
    12     5     6    1
    13     6    25    1
    14    25    26    1
    15    26    27    1
    16    27    28    1
    17    28    29    1
    18    29    30    1
    19    30    31    1
    20    31    32   ar
    21    32    33   ar
    22    33    34   ar
    23    34    35    1
    24    34    36   ar
    25    36    37   ar
    26    30    38    1
    27    38    39   ar
    28    39    40   ar
    29    40    41   ar
    30    41    42    1
    31    41    43   ar
    32    43    44   ar
    33     6     7    1
    34     7     8    1
    35    11    12   ar
    36    12    13   ar
    37    13    21    1
    38    21    22    1
    39    21    23    1
    40    21    24    1
    41    13    14   ar
    42    14    15    1
    43    14     9   ar
    44     8     3    1
    45    37    31   ar
    46    44    38   ar
    47    15    16    1
@<TRIPOS>MOLECULE
*****
 44 47 0 0 0
SMALL
GASTEIGER

@<TRIPOS>ATOM
      1 C         139.1449  144.0718  164.8164 C.2     1  UNL1        0.2491
      2 O         138.0645  144.9739  165.3350 O.2     1  UNL1       -0.2699
      3 N         139.7508  144.3255  163.4679 N.am    1  UNL1       -0.2732
      4 C         140.8313  143.4233  162.9494 C.3     1  UNL1        0.1110
      5 C         141.4372  143.6770  161.6009 C.3     1  UNL1        0.0939
      6 N         140.9627  144.8329  160.7709 N.3     1  UNL1       -0.2698
      7 C         139.8823  145.7350  161.2894 C.3     1  UNL1        0.0939
      8 C         139.2764  145.4813  162.6379 C.3     1  UNL1        0.1110
      9 C         140.9586  142.0042  167.6776 C.ar    1  UNL1        0.0107
     10 C         140.4841  143.1600  166.8476 C.ar    1  UNL1        0.0032
     11 C         139.6194  142.9159  165.6464 C.ar    1  UNL1        0.0532
     12 C         139.2293  141.5159  165.2752 C.ar    1  UNL1        0.0032
     13 C         139.7038  140.3601  166.1052 C.ar    1  UNL1        0.0107
     14 C         140.5684  140.6043  167.3064 C.ar    1  UNL1        0.1255
     15 O         141.0430  139.4484  168.1364 O.3     1  UNL1       -0.5061
     16 H         140.7993  138.5738  167.9045 H       1  UNL1        0.2922
     17 C         140.5989  142.3490  169.7395 C.3     1  UNL1        0.0045
     18 C         141.8232  142.2484  168.8787 C.3     1  UNL1        0.0218
     19 C         143.0475  142.1478  168.0179 C.3     1  UNL1        0.0045
     20 C         142.6878  142.4926  170.0799 C.3     1  UNL1        0.0045
     21 C         139.3137  138.9600  165.7340 C.3     1  UNL1        0.0218
     22 C         138.0716  139.0856  166.5655 C.3     1  UNL1        0.0045
     23 C         140.5558  138.8344  164.9025 C.3     1  UNL1        0.0045
     24 C         138.9236  137.5600  165.3629 C.3     1  UNL1        0.0045
     25 C         141.5687  145.0867  159.4224 C.3     1  UNL1        0.0722
     26 C         141.6735  143.9709  158.4253 C.3     1  UNL1        0.0173
     27 C         142.9297  143.7963  157.6244 C.3     1  UNL1        0.0014
     28 C         143.8981  142.7062  157.9762 C.3     1  UNL1        0.0007
     29 C         144.1011  142.3174  159.4106 C.3     1  UNL1        0.0087
     30 C         143.4851  141.0564  159.9403 C.3     1  UNL1        0.0446
     31 C         142.4576  140.3251  159.1282 C.ar    1  UNL1       -0.0183
     32 C         141.0013  140.6395  159.3024 C.ar    1  UNL1       -0.0017
     33 C         139.9738  139.9081  158.4904 C.ar    1  UNL1        0.0293
     34 C         140.4026  138.8624  157.5042 C.ar    1  UNL1        0.1401
     35 F         139.3751  138.1310  156.6921 F       1  UNL1       -0.2042
     36 C         141.8589  138.5480  157.3300 C.ar    1  UNL1        0.0293
     37 C         142.8864  139.2794  158.1420 C.ar    1  UNL1       -0.0017
     38 C         143.8966  140.5267  161.2820 C.ar    1  UNL1       -0.0183
     39 C         144.7918  141.3418  162.1676 C.ar    1  UNL1       -0.0017
     40 C         145.2033  140.8122  163.5093 C.ar    1  UNL1        0.0293
     41 C         144.7196  139.4675  163.9654 C.ar    1  UNL1        0.1401
     42 F         145.1312  138.9379  165.3071 F       1  UNL1       -0.2042
     43 C         143.8244  138.6525  163.0798 C.ar    1  UNL1        0.0293
     44 C         143.4129  139.1821  161.7380 C.ar    1  UNL1       -0.0017
@<TRIPOS>BOND
     1    17    18    1
     2    18    19    1
     3    18    20    1
     4    18     9    1
     5     9    10   ar
     6    10    11   ar
     7    11     1    1
     8     1     2    2
     9     1     3   am
    10     3     4    1
    11     4     5    1
    12     5     6    1
    13     6    25    1
    14    25    26    1
    15    26    27    1
    16    27    28    1
    17    28    29    1
    18    29    30    1
    19    30    31    1
    20    31    32   ar
    21    32    33   ar
    22    33    34   ar
    23    34    35    1
    24    34    36   ar
    25    36    37   ar
    26    30    38    1
    27    38    39   ar
    28    39    40   ar
    29    40    41   ar
    30    41    42    1
    31    41    43   ar
    32    43    44   ar
    33     6     7    1
    34     7     8    1
    35    11    12   ar
    36    12    13   ar
    37    13    21    1
    38    21    22    1
    39    21    23    1
    40    21    24    1
    41    13    14   ar
    42    14    15    1
    43    14     9   ar
    44     8     3    1
    45    37    31   ar
    46    44    38   ar
    47    15    16    1
@<TRIPOS>MOLECULE
*****
 44 47 0 0 0
SMALL
GASTEIGER

@<TRIPOS>ATOM
      1 C         140.2553  145.2949  160.6814 C.2     1  UNL1        0.2491
      2 O         139.3312  146.2857  161.3252 O.2     1  UNL1       -0.2699
      3 N         141.4038  144.7249  161.4598 N.am    1  UNL1       -0.2732
      4 C         142.3279  143.7341  160.8160 C.3     1  UNL1        0.1110
      5 C         143.4765  143.1640  161.5943 C.3     1  UNL1        0.0939
      6 N         143.7010  143.5848  163.0166 N.3     1  UNL1       -0.2698
      7 C         142.7769  144.5756  163.6603 C.3     1  UNL1        0.0939
      8 C         141.6284  145.1456  162.8819 C.3     1  UNL1        0.1110
      9 C         139.3650  143.0529  157.5301 C.ar    1  UNL1        0.0107
     10 C         139.5895  143.4738  158.9522 C.ar    1  UNL1        0.0032
     11 C         140.0308  144.8741  159.2592 C.ar    1  UNL1        0.0532
     12 C         140.2475  145.8537  158.1441 C.ar    1  UNL1        0.0032
     13 C         140.0231  145.4329  156.7220 C.ar    1  UNL1        0.0107
     14 C         139.5818  144.0325  156.4150 C.ar    1  UNL1        0.1255
     15 O         139.3573  143.6117  154.9928 O.3     1  UNL1       -0.5061
     16 H         139.4927  144.2236  154.2962 H       1  UNL1        0.2922
     17 C         137.4919  142.0990  157.2450 C.3     1  UNL1        0.0045
     18 C         138.9237  141.6526  157.2230 C.3     1  UNL1        0.0218
     19 C         140.3556  141.2062  157.2011 C.3     1  UNL1        0.0045
     20 C         138.4825  140.2522  156.9160 C.3     1  UNL1        0.0045
     21 C         140.2398  146.4124  155.6068 C.3     1  UNL1        0.0218
     22 C         141.6294  145.8825  155.4114 C.3     1  UNL1        0.0045
     23 C         138.8503  146.9424  155.8023 C.3     1  UNL1        0.0045
     24 C         140.4565  147.3920  154.4917 C.3     1  UNL1        0.0045
     25 C         144.8495  143.0148  163.7949 C.3     1  UNL1        0.0722
     26 C         145.5202  141.7564  163.3291 C.3     1  UNL1        0.0173
     27 C         145.1756  140.4429  163.9663 C.3     1  UNL1        0.0014
     28 C         144.0774  139.5968  163.3936 C.3     1  UNL1        0.0007
     29 C         142.8857  139.2452  164.2340 C.3     1  UNL1        0.0087
     30 C         142.0937  140.3292  164.9031 C.3     1  UNL1        0.0446
     31 C         141.0078  141.0386  164.1498 C.ar    1  UNL1       -0.0183
     32 C         140.7956  140.7523  162.6927 C.ar    1  UNL1       -0.0017
     33 C         139.7096  141.4618  161.9394 C.ar    1  UNL1        0.0293
     34 C         138.8359  142.4574  162.6432 C.ar    1  UNL1        0.1401
     35 F         137.7499  143.1669  161.8900 F       1  UNL1       -0.2042
     36 C         139.0481  142.7436  164.1003 C.ar    1  UNL1        0.0293
     37 C         140.1341  142.0342  164.8536 C.ar    1  UNL1       -0.0017
     38 C         142.3877  140.7038  166.3256 C.ar    1  UNL1       -0.0183
     39 C         142.9750  142.0474  166.6412 C.ar    1  UNL1       -0.0017
     40 C         143.2689  142.4220  168.0636 C.ar    1  UNL1        0.0293
     41 C         142.9756  141.4530  169.1704 C.ar    1  UNL1        0.1401
     42 F         143.2696  141.8276  170.5928 F       1  UNL1       -0.2042
     43 C         142.3883  140.1093  168.8548 C.ar    1  UNL1        0.0293
     44 C         142.0944  139.7347  167.4323 C.ar    1  UNL1       -0.0017
@<TRIPOS>BOND
     1    17    18    1
     2    18    19    1
     3    18    20    1
     4    18     9    1
     5     9    10   ar
     6    10    11   ar
     7    11     1    1
     8     1     2    2
     9     1     3   am
    10     3     4    1
    11     4     5    1
    12     5     6    1
    13     6    25    1
    14    25    26    1
    15    26    27    1
    16    27    28    1
    17    28    29    1
    18    29    30    1
    19    30    31    1
    20    31    32   ar
    21    32    33   ar
    22    33    34   ar
    23    34    35    1
    24    34    36   ar
    25    36    37   ar
    26    30    38    1
    27    38    39   ar
    28    39    40   ar
    29    40    41   ar
    30    41    42    1
    31    41    43   ar
    32    43    44   ar
    33     6     7    1
    34     7     8    1
    35    11    12   ar
    36    12    13   ar
    37    13    21    1
    38    21    22    1
    39    21    23    1
    40    21    24    1
    41    13    14   ar
    42    14    15    1
    43    14     9   ar
    44     8     3    1
    45    37    31   ar
    46    44    38   ar
    47    15    16    1
@<TRIPOS>MOLECULE
*****
 44 47 0 0 0
SMALL
GASTEIGER

@<TRIPOS>ATOM
      1 C         140.3085  145.2639  160.3782 C.2     1  UNL1        0.2491
      2 O         139.4271  146.2449  161.0927 O.2     1  UNL1       -0.2699
      3 N         141.4833  144.6569  161.0863 N.am    1  UNL1       -0.2732
      4 C         142.3647  143.6757  160.3716 C.3     1  UNL1        0.1110
      5 C         143.5395  143.0687  161.0797 C.3     1  UNL1        0.0939
      6 N         143.8329  143.4428  162.5024 N.3     1  UNL1       -0.2698
      7 C         142.9515  144.4239  163.2170 C.3     1  UNL1        0.0939
      8 C         141.7767  145.0309  162.5089 C.3     1  UNL1        0.1110
      9 C         139.9294  145.5175  156.4358 C.ar    1  UNL1        0.0107
     10 C         140.2228  145.8915  157.8585 C.ar    1  UNL1        0.0032
     11 C         140.0151  144.8898  158.9555 C.ar    1  UNL1        0.0532
     12 C         139.5140  143.5140  158.6298 C.ar    1  UNL1        0.0032
     13 C         139.2206  143.1400  157.2071 C.ar    1  UNL1        0.0107
     14 C         139.4283  144.1417  156.1102 C.ar    1  UNL1        0.1255
     15 O         139.1349  143.7676  154.6874 O.3     1  UNL1       -0.5061
     16 H         138.8219  142.9082  154.4840 H       1  UNL1        0.2922
     17 C         141.4856  145.9273  155.0537 C.3     1  UNL1        0.0045
     18 C         140.1371  146.5192  155.3388 C.3     1  UNL1        0.0218
     19 C         138.7887  147.1111  155.6240 C.3     1  UNL1        0.0045
     20 C         140.3448  147.5210  154.2419 C.3     1  UNL1        0.0045
     21 C         138.7195  141.7641  156.8814 C.3     1  UNL1        0.0218
     22 C         137.3058  142.2559  156.9788 C.3     1  UNL1        0.0045
     23 C         140.1332  141.2723  156.7840 C.3     1  UNL1        0.0045
     24 C         138.2184  140.3883  156.5557 C.3     1  UNL1        0.0045
     25 C         145.0077  142.8358  163.2105 C.3     1  UNL1        0.0722
     26 C         144.7889  141.8090  164.2820 C.3     1  UNL1        0.0173
     27 C         144.3792  140.4143  163.9118 C.3     1  UNL1        0.0014
     28 C         144.9913  139.2406  164.6172 C.3     1  UNL1        0.0007
     29 C         144.2349  138.5441  165.7093 C.3     1  UNL1        0.0087
     30 C         142.8705  139.0273  166.1026 C.3     1  UNL1        0.0446
     31 C         141.6752  138.6518  165.2778 C.ar    1  UNL1       -0.0183
     32 C         141.8169  137.6633  164.1584 C.ar    1  UNL1       -0.0017
     33 C         140.6217  137.2879  163.3336 C.ar    1  UNL1        0.0293
     34 C         139.2846  137.9008  163.6281 C.ar    1  UNL1        0.1401
     35 F         138.0894  137.5254  162.8033 F       1  UNL1       -0.2042
     36 C         139.1429  138.8892  164.7475 C.ar    1  UNL1        0.0293
     37 C         140.3382  139.2647  165.5723 C.ar    1  UNL1       -0.0017
     38 C         142.7012  139.8861  167.3208 C.ar    1  UNL1       -0.0183
     39 C         142.5295  139.2504  168.6686 C.ar    1  UNL1       -0.0017
     40 C         142.3603  140.1091  169.8867 C.ar    1  UNL1        0.0293
     41 C         142.3628  141.6035  169.7572 C.ar    1  UNL1        0.1401
     42 F         142.1936  142.4622  170.9754 F       1  UNL1       -0.2042
     43 C         142.5345  142.2392  168.4095 C.ar    1  UNL1        0.0293
     44 C         142.7037  141.3804  167.1912 C.ar    1  UNL1       -0.0017
@<TRIPOS>BOND
     1    17    18    1
     2    18    19    1
     3    18    20    1
     4    18     9    1
     5     9    10   ar
     6    10    11   ar
     7    11     1    1
     8     1     2    2
     9     1     3   am
    10     3     4    1
    11     4     5    1
    12     5     6    1
    13     6    25    1
    14    25    26    1
    15    26    27    1
    16    27    28    1
    17    28    29    1
    18    29    30    1
    19    30    31    1
    20    31    32   ar
    21    32    33   ar
    22    33    34   ar
    23    34    35    1
    24    34    36   ar
    25    36    37   ar
    26    30    38    1
    27    38    39   ar
    28    39    40   ar
    29    40    41   ar
    30    41    42    1
    31    41    43   ar
    32    43    44   ar
    33     6     7    1
    34     7     8    1
    35    11    12   ar
    36    12    13   ar
    37    13    21    1
    38    21    22    1
    39    21    23    1
    40    21    24    1
    41    13    14   ar
    42    14    15    1
    43    14     9   ar
    44     8     3    1
    45    37    31   ar
    46    44    38   ar
    47    15    16    1
@<TRIPOS>MOLECULE
*****
 44 47 0 0 0
SMALL
GASTEIGER

@<TRIPOS>ATOM
      1 C         139.6845  138.9915  158.7446 C.2     1  UNL1        0.2491
      2 O         138.4123  139.4727  158.1122 O.2     1  UNL1       -0.2699
      3 N         139.7162  138.6595  160.2071 N.am    1  UNL1       -0.2732
      4 C         140.9885  138.1783  160.8395 C.3     1  UNL1        0.1110
      5 C         141.0203  137.8464  162.3019 C.3     1  UNL1        0.0939
      6 N         139.7798  137.9957  163.1320 N.3     1  UNL1       -0.2698
      7 C         138.5076  138.4768  162.4996 C.3     1  UNL1        0.0939
      8 C         138.4758  138.8088  161.0371 C.3     1  UNL1        0.1110
      9 C         142.4803  137.3773  156.4364 C.ar    1  UNL1        0.0107
     10 C         141.2399  137.5266  157.2664 C.ar    1  UNL1        0.0032
     11 C         140.9250  138.8422  157.9145 C.ar    1  UNL1        0.0532
     12 C         141.8505  140.0085  157.7326 C.ar    1  UNL1        0.0032
     13 C         143.0909  139.8592  156.9026 C.ar    1  UNL1        0.0107
     14 C         143.4058  138.5436  156.2545 C.ar    1  UNL1        0.1255
     15 O         144.6463  138.3944  155.4244 O.3     1  UNL1       -0.5061
     16 H         145.2245  139.1229  155.3108 H       1  UNL1        0.2922
     17 C         143.3901  135.5704  157.0747 C.3     1  UNL1        0.0045
     18 C         142.7952  136.0618  155.7883 C.3     1  UNL1        0.0218
     19 C         142.2004  136.5531  154.5019 C.3     1  UNL1        0.0045
     20 C         143.1101  134.7462  155.1402 C.3     1  UNL1        0.0045
     21 C         144.0165  141.0256  156.7206 C.3     1  UNL1        0.0218
     22 C         143.4159  141.2919  155.3722 C.3     1  UNL1        0.0045
     23 C         144.6171  140.7592  158.0690 C.3     1  UNL1        0.0045
     24 C         144.9421  142.1918  156.5387 C.3     1  UNL1        0.0045
     25 C         139.8115  137.6637  164.5945 C.3     1  UNL1        0.0722
     26 C         138.5304  137.5588  165.3677 C.3     1  UNL1        0.0173
     27 C         138.0539  138.7190  166.1904 C.3     1  UNL1        0.0014
     28 C         138.8430  139.1656  167.3853 C.3     1  UNL1        0.0007
     29 C         139.5235  140.5023  167.3778 C.3     1  UNL1        0.0087
     30 C         140.1515  141.0171  166.1167 C.3     1  UNL1        0.0446
     31 C         139.4381  142.0446  165.2888 C.ar    1  UNL1       -0.0183
     32 C         138.4312  141.6143  164.2636 C.ar    1  UNL1       -0.0017
     33 C         137.7177  142.6417  163.4357 C.ar    1  UNL1        0.0293
     34 C         138.0113  144.0995  163.6330 C.ar    1  UNL1        0.1401
     35 F         137.2979  145.1269  162.8051 F       1  UNL1       -0.2042
     36 C         139.0183  144.5297  164.6581 C.ar    1  UNL1        0.0293
     37 C         139.7317  143.5022  165.4860 C.ar    1  UNL1       -0.0017
     38 C         141.4930  140.5045  165.6833 C.ar    1  UNL1       -0.0183
     39 C         142.0797  140.9496  164.3765 C.ar    1  UNL1       -0.0017
     40 C         143.4211  140.4370  163.9432 C.ar    1  UNL1        0.0293
     41 C         144.1760  139.4793  164.8167 C.ar    1  UNL1        0.1401
     42 F         145.5174  138.9667  164.3834 F       1  UNL1       -0.2042
     43 C         143.5893  139.0341  166.1235 C.ar    1  UNL1        0.0293
     44 C         142.2478  139.5468  166.5568 C.ar    1  UNL1       -0.0017
@<TRIPOS>BOND
     1    17    18    1
     2    18    19    1
     3    18    20    1
     4    18     9    1
     5     9    10   ar
     6    10    11   ar
     7    11     1    1
     8     1     2    2
     9     1     3   am
    10     3     4    1
    11     4     5    1
    12     5     6    1
    13     6    25    1
    14    25    26    1
    15    26    27    1
    16    27    28    1
    17    28    29    1
    18    29    30    1
    19    30    31    1
    20    31    32   ar
    21    32    33   ar
    22    33    34   ar
    23    34    35    1
    24    34    36   ar
    25    36    37   ar
    26    30    38    1
    27    38    39   ar
    28    39    40   ar
    29    40    41   ar
    30    41    42    1
    31    41    43   ar
    32    43    44   ar
    33     6     7    1
    34     7     8    1
    35    11    12   ar
    36    12    13   ar
    37    13    21    1
    38    21    22    1
    39    21    23    1
    40    21    24    1
    41    13    14   ar
    42    14    15    1
    43    14     9   ar
    44     8     3    1
    45    37    31   ar
    46    44    38   ar
    47    15    16    1
@<TRIPOS>MOLECULE
*****
 44 47 0 0 0
SMALL
GASTEIGER

@<TRIPOS>ATOM
      1 C         144.0094  142.0569  160.7499 C.2     1  UNL1        0.2491
      2 O         144.9700  142.8883  161.5473 O.2     1  UNL1       -0.2699
      3 N         143.3630  140.8545  161.3715 N.am    1  UNL1       -0.2732
      4 C         142.4023  140.0231  160.5741 C.3     1  UNL1        0.1110
      5 C         141.7559  138.8207  161.1957 C.3     1  UNL1        0.0939
      6 N         142.0702  138.4497  162.6148 N.3     1  UNL1       -0.2698
      7 C         143.0308  139.2811  163.4122 C.3     1  UNL1        0.0939
      8 C         143.6772  140.4835  162.7905 C.3     1  UNL1        0.1110
      9 C         142.3059  143.8034  157.6198 C.ar    1  UNL1        0.0107
     10 C         142.6202  143.4324  159.0388 C.ar    1  UNL1        0.0032
     11 C         143.6951  142.4279  159.3309 C.ar    1  UNL1        0.0532
     12 C         144.4558  141.7943  158.2040 C.ar    1  UNL1        0.0032
     13 C         144.1415  142.1652  156.7850 C.ar    1  UNL1        0.0107
     14 C         143.0665  143.1698  156.4929 C.ar    1  UNL1        0.1255
     15 O         142.7522  143.5408  155.0738 O.3     1  UNL1       -0.5061
     16 H         143.2274  143.1450  154.3699 H       1  UNL1        0.2922
     17 C         142.2361  145.9158  157.4383 C.3     1  UNL1        0.0045
     18 C         141.2309  144.8080  157.3277 C.3     1  UNL1        0.0218
     19 C         140.2257  143.7001  157.2171 C.3     1  UNL1        0.0045
     20 C         140.1559  145.8125  157.0356 C.3     1  UNL1        0.0045
     21 C         144.9021  141.5316  155.6580 C.3     1  UNL1        0.0218
     22 C         143.8286  140.4936  155.5169 C.3     1  UNL1        0.0045
     23 C         145.9757  142.5696  155.7991 C.3     1  UNL1        0.0045
     24 C         145.6628  140.8981  154.5311 C.3     1  UNL1        0.0045
     25 C         141.4238  137.2473  163.2364 C.3     1  UNL1        0.0722
     26 C         140.6681  137.3841  164.5250 C.3     1  UNL1        0.0173
     27 C         139.2109  137.7395  164.5057 C.3     1  UNL1        0.0014
     28 C         138.4367  137.8000  165.7890 C.3     1  UNL1        0.0007
     29 C         138.0562  139.1280  166.3735 C.3     1  UNL1        0.0087
     30 C         139.0981  140.1902  166.5631 C.3     1  UNL1        0.0446
     31 C         140.1540  140.0258  167.6157 C.ar    1  UNL1       -0.0183
     32 C         141.5609  139.6875  167.2203 C.ar    1  UNL1       -0.0017
     33 C         142.6168  139.5230  168.2730 C.ar    1  UNL1        0.0293
     34 C         142.2658  139.6969  169.7210 C.ar    1  UNL1        0.1401
     35 F         143.3217  139.5324  170.7736 F       1  UNL1       -0.2042
     36 C         140.8590  140.0351  170.1163 C.ar    1  UNL1        0.0293
     37 C         139.8031  140.1996  169.0636 C.ar    1  UNL1       -0.0017
     38 C         139.0842  141.4170  165.7000 C.ar    1  UNL1       -0.0183
     39 C         138.1799  141.4831  164.5050 C.ar    1  UNL1       -0.0017
     40 C         138.1659  142.7098  163.6420 C.ar    1  UNL1        0.0293
     41 C         139.0563  143.8705  163.9738 C.ar    1  UNL1        0.1401
     42 F         139.0424  145.0972  163.1107 F       1  UNL1       -0.2042
     43 C         139.9606  143.8045  165.1687 C.ar    1  UNL1        0.0293
     44 C         139.9746  142.5777  166.0318 C.ar    1  UNL1       -0.0017
@<TRIPOS>BOND
     1    17    18    1
     2    18    19    1
     3    18    20    1
     4    18     9    1
     5     9    10   ar
     6    10    11   ar
     7    11     1    1
     8     1     2    2
     9     1     3   am
    10     3     4    1
    11     4     5    1
    12     5     6    1
    13     6    25    1
    14    25    26    1
    15    26    27    1
    16    27    28    1
    17    28    29    1
    18    29    30    1
    19    30    31    1
    20    31    32   ar
    21    32    33   ar
    22    33    34   ar
    23    34    35    1
    24    34    36   ar
    25    36    37   ar
    26    30    38    1
    27    38    39   ar
    28    39    40   ar
    29    40    41   ar
    30    41    42    1
    31    41    43   ar
    32    43    44   ar
    33     6     7    1
    34     7     8    1
    35    11    12   ar
    36    12    13   ar
    37    13    21    1
    38    21    22    1
    39    21    23    1
    40    21    24    1
    41    13    14   ar
    42    14    15    1
    43    14     9   ar
    44     8     3    1
    45    37    31   ar
    46    44    38   ar
    47    15    16    1
