@<TRIPOS>MOLECULE
*****
 34 36 0 0 0
SMALL
GASTEIGER

@<TRIPOS>ATOM
      1 O         137.2089  139.9402  156.4678 O.2     1  UNL1       -0.2701
      2 C         137.0255  141.4167  156.6590 C.2     1  UNL1        0.2462
      3 N         135.8721  142.1198  156.0069 N.am    1  UNL1       -0.2969
      4 H         135.7517  143.0888  156.1324 H       1  UNL1        0.1501
      5 C         137.9955  142.1899  157.5023 C.ar    1  UNL1        0.0557
      6 C         138.7876  143.3109  156.8974 C.ar    1  UNL1        0.0060
      7 C         139.7575  144.0842  157.7406 C.ar    1  UNL1        0.0226
      8 C         139.9355  143.7365  159.1889 C.ar    1  UNL1        0.1525
      9 C         139.1434  142.6155  159.7939 C.ar    1  UNL1        0.1590
     10 F         139.3213  142.2677  161.2421 F       1  UNL1       -0.2027
     11 C         138.1734  141.8422  158.9505 C.ar    1  UNL1        0.0355
     12 S         140.9054  144.5097  160.0322 S.O2    1  UNL1        0.0772
     13 O         142.0050  143.5741  159.6255 O.2     1  UNL1       -0.1498
     14 O         139.8059  145.4454  160.4390 O.2     1  UNL1       -0.1498
     15 N         141.8754  145.2830  160.8755 N.pl3   1  UNL1       -0.1936
     16 H         142.1458  146.1909  160.6075 H       1  UNL1        0.1758
     17 C         142.4335  144.6729  162.1271 C.ar    1  UNL1        0.1786
     18 N         143.8836  144.6073  162.5052 N.ar    1  UNL1       -0.2214
     19 C         143.9858  143.9152  163.8321 C.ar    1  UNL1        0.1079
     20 C         142.5988  143.5531  164.2740 C.ar    1  UNL1        0.0588
     21 S         141.6395  144.0214  163.2203 S.2     1  UNL1       -0.0497
     22 C         134.9021  141.3466  155.1636 C.3     1  UNL1        0.1166
     23 C         133.6031  140.8802  155.7512 C.ar    1  UNL1       -0.0015
     24 C         133.5971  139.8144  156.8066 C.ar    1  UNL1        0.0006
     25 C         132.2981  139.3481  157.3942 C.ar    1  UNL1        0.0378
     26 C         131.0052  139.9477  156.9264 C.ar    1  UNL1        0.1572
     27 C         131.0112  141.0136  155.8710 C.ar    1  UNL1        0.0915
     28 CL        129.7183  141.6132  155.4033 Cl      1  UNL1       -0.0791
     29 C         132.3102  141.4798  155.2835 C.ar    1  UNL1        0.0118
     30 O         129.7062  139.4814  157.5140 O.3     1  UNL1       -0.4036
     31 C         129.3452  138.0260  157.4757 C.3     1  UNL1        0.5753
     32 F         128.9842  136.5705  157.4373 F       1  UNL1       -0.1328
     33 F         129.4238  137.9671  158.9724 F       1  UNL1       -0.1328
     34 F         129.2667  138.0849  155.9789 F       1  UNL1       -0.1328
@<TRIPOS>BOND
     1     1     2    2
     2     2     3   am
     3     3    22    1
     4    22    23    1
     5    23    24   ar
     6    24    25   ar
     7    25    26   ar
     8    26    30    1
     9    30    31    1
    10    31    32    1
    11    31    33    1
    12    31    34    1
    13    26    27   ar
    14    27    28    1
    15    27    29   ar
    16     2     5    1
    17     5     6   ar
    18     6     7   ar
    19     7     8   ar
    20     8    12    1
    21    12    13    2
    22    12    14    2
    23    12    15    1
    24    15    17    1
    25    17    18   ar
    26    18    19   ar
    27    19    20   ar
    28    20    21   ar
    29     8     9   ar
    30     9    10    1
    31     9    11   ar
    32    29    23   ar
    33    11     5   ar
    34    21    17   ar
    35     3     4    1
    36    15    16    1
@<TRIPOS>MOLECULE
*****
 34 36 0 0 0
SMALL
GASTEIGER

@<TRIPOS>ATOM
      1 O         138.9011  141.7193  163.2118 O.2     1  UNL1       -0.2701
      2 C         139.5785  140.3810  163.2182 C.2     1  UNL1        0.2462
      3 N         139.5245  139.5189  164.4446 N.am    1  UNL1       -0.2969
      4 H         139.9691  138.6405  164.4488 H       1  UNL1        0.1501
      5 C         140.3099  139.9048  161.9983 C.ar    1  UNL1        0.0557
      6 C         139.5873  139.1053  160.9549 C.ar    1  UNL1        0.0060
      7 C         140.3187  138.6290  159.7350 C.ar    1  UNL1        0.0226
      8 C         141.7728  138.9523  159.5584 C.ar    1  UNL1        0.1525
      9 C         142.4954  139.7518  160.6017 C.ar    1  UNL1        0.1590
     10 F         143.9494  140.0751  160.4252 F       1  UNL1       -0.2027
     11 C         141.7639  140.2281  161.8217 C.ar    1  UNL1        0.0355
     12 S         142.5042  138.4761  158.3385 S.O2    1  UNL1        0.0772
     13 O         143.0522  137.3184  159.1190 O.2     1  UNL1       -0.1498
     14 O         141.9561  139.6339  157.5580 O.2     1  UNL1       -0.1498
     15 N         143.2355  137.9999  157.1186 N.pl3   1  UNL1       -0.1936
     16 H         143.9365  138.5608  156.7146 H       1  UNL1        0.1758
     17 C         142.8989  136.6690  156.5141 C.ar    1  UNL1        0.1786
     18 N         143.8494  135.5261  156.3130 N.ar    1  UNL1       -0.2214
     19 C         143.0906  134.3981  155.6792 C.ar    1  UNL1        0.1079
     20 C         141.6711  134.8438  155.4885 C.ar    1  UNL1        0.0588
     21 S         141.5526  136.2472  156.0045 S.2     1  UNL1       -0.0497
     22 C         138.7932  139.9951  165.6645 C.3     1  UNL1        0.1166
     23 C         139.5553  140.5899  166.8114 C.ar    1  UNL1       -0.0015
     24 C         140.3682  141.8339  166.6071 C.ar    1  UNL1        0.0006
     25 C         141.1303  142.4286  167.7540 C.ar    1  UNL1        0.0378
     26 C         141.0794  141.7795  169.1053 C.ar    1  UNL1        0.1572
     27 C         140.2666  140.5355  169.3097 C.ar    1  UNL1        0.0915
     28 CL        140.2157  139.8864  170.6610 Cl      1  UNL1       -0.0791
     29 C         139.5045  139.9408  168.1627 C.ar    1  UNL1        0.0118
     30 O         141.8416  142.3743  170.2522 O.3     1  UNL1       -0.4036
     31 C         143.3324  142.5169  170.1685 C.3     1  UNL1        0.5753
     32 F         144.8233  142.6595  170.0848 F       1  UNL1       -0.1328
     33 F         143.4287  141.1512  169.5557 F       1  UNL1       -0.1328
     34 F         143.2362  143.8826  170.7813 F       1  UNL1       -0.1328
@<TRIPOS>BOND
     1     1     2    2
     2     2     3   am
     3     3    22    1
     4    22    23    1
     5    23    24   ar
     6    24    25   ar
     7    25    26   ar
     8    26    30    1
     9    30    31    1
    10    31    32    1
    11    31    33    1
    12    31    34    1
    13    26    27   ar
    14    27    28    1
    15    27    29   ar
    16     2     5    1
    17     5     6   ar
    18     6     7   ar
    19     7     8   ar
    20     8    12    1
    21    12    13    2
    22    12    14    2
    23    12    15    1
    24    15    17    1
    25    17    18   ar
    26    18    19   ar
    27    19    20   ar
    28    20    21   ar
    29     8     9   ar
    30     9    10    1
    31     9    11   ar
    32    29    23   ar
    33    11     5   ar
    34    21    17   ar
    35     3     4    1
    36    15    16    1
@<TRIPOS>MOLECULE
*****
 34 36 0 0 0
SMALL
GASTEIGER

@<TRIPOS>ATOM
      1 O         142.6683  141.4495  162.9004 O.2     1  UNL1       -0.2701
      2 C         141.4744  141.0393  162.0902 C.2     1  UNL1        0.2462
      3 N         140.0985  141.4562  162.5181 N.am    1  UNL1       -0.2969
      4 H         139.3149  141.1870  161.9864 H       1  UNL1        0.1501
      5 C         141.6564  140.2121  160.8522 C.ar    1  UNL1        0.0557
      6 C         141.1880  140.7337  159.5261 C.ar    1  UNL1        0.0060
      7 C         141.3700  139.9066  158.2882 C.ar    1  UNL1        0.0226
      8 C         142.0204  138.5577  158.3762 C.ar    1  UNL1        0.1525
      9 C         142.4887  138.0361  159.7023 C.ar    1  UNL1        0.1590
     10 F         143.1391  136.6873  159.7904 F       1  UNL1       -0.2027
     11 C         142.3067  138.8633  160.9404 C.ar    1  UNL1        0.0355
     12 S         142.2023  137.7306  157.1382 S.O2    1  UNL1        0.0772
     13 O         143.6431  138.1429  157.0745 O.2     1  UNL1       -0.1498
     14 O         140.7616  137.3182  157.2020 O.2     1  UNL1       -0.1498
     15 N         142.3843  136.9034  155.9003 N.pl3   1  UNL1       -0.1936
     16 H         142.5341  137.3430  155.0322 H       1  UNL1        0.1758
     17 C         142.3381  135.4065  155.9849 C.ar    1  UNL1        0.1786
     18 N         141.4195  134.5076  155.2114 N.ar    1  UNL1       -0.2214
     19 C         141.7161  133.0912  155.6063 C.ar    1  UNL1        0.1079
     20 C         142.8179  133.1147  156.6239 C.ar    1  UNL1        0.0588
     21 S         143.2024  134.5456  156.8578 S.2     1  UNL1       -0.0497
     22 C         139.9166  142.2834  163.7561 C.3     1  UNL1        0.1166
     23 C         139.7989  141.6153  165.0940 C.ar    1  UNL1       -0.0015
     24 C         140.6438  142.0817  166.2422 C.ar    1  UNL1        0.0006
     25 C         140.5261  141.4136  167.5800 C.ar    1  UNL1        0.0378
     26 C         139.5634  140.2790  167.7695 C.ar    1  UNL1        0.1572
     27 C         138.7184  139.8125  166.6213 C.ar    1  UNL1        0.0915
     28 CL        137.7558  138.6779  166.8109 Cl      1  UNL1       -0.0791
     29 C         138.8362  140.4807  165.2836 C.ar    1  UNL1        0.0118
     30 O         139.4457  139.6109  169.1074 O.3     1  UNL1       -0.4036
     31 C         140.0531  140.2499  170.3209 C.3     1  UNL1        0.5753
     32 F         140.6605  140.8890  171.5345 F       1  UNL1       -0.1328
     33 F         138.9770  141.2948  170.3092 F       1  UNL1       -0.1328
     34 F         141.1292  139.2050  170.3326 F       1  UNL1       -0.1328
@<TRIPOS>BOND
     1     1     2    2
     2     2     3   am
     3     3    22    1
     4    22    23    1
     5    23    24   ar
     6    24    25   ar
     7    25    26   ar
     8    26    30    1
     9    30    31    1
    10    31    32    1
    11    31    33    1
    12    31    34    1
    13    26    27   ar
    14    27    28    1
    15    27    29   ar
    16     2     5    1
    17     5     6   ar
    18     6     7   ar
    19     7     8   ar
    20     8    12    1
    21    12    13    2
    22    12    14    2
    23    12    15    1
    24    15    17    1
    25    17    18   ar
    26    18    19   ar
    27    19    20   ar
    28    20    21   ar
    29     8     9   ar
    30     9    10    1
    31     9    11   ar
    32    29    23   ar
    33    11     5   ar
    34    21    17   ar
    35     3     4    1
    36    15    16    1
@<TRIPOS>MOLECULE
*****
 34 36 0 0 0
SMALL
GASTEIGER

@<TRIPOS>ATOM
      1 O         141.0340  137.2012  162.5096 O.2     1  UNL1       -0.2701
      2 C         141.1240  138.6460  162.1169 C.2     1  UNL1        0.2462
      3 N         141.9447  139.5966  162.9373 N.am    1  UNL1       -0.2969
      4 H         142.0038  140.5449  162.6795 H       1  UNL1        0.1501
      5 C         140.3935  139.1404  160.9037 C.ar    1  UNL1        0.0557
      6 C         141.1584  139.5197  159.6703 C.ar    1  UNL1        0.0060
      7 C         140.4278  140.0140  158.4571 C.ar    1  UNL1        0.0226
      8 C         138.9323  140.1291  158.4772 C.ar    1  UNL1        0.1525
      9 C         138.1675  139.7498  159.7105 C.ar    1  UNL1        0.1590
     10 F         136.6721  139.8649  159.7307 F       1  UNL1       -0.2027
     11 C         138.8981  139.2555  160.9238 C.ar    1  UNL1        0.0355
     12 S         138.2018  140.6234  157.2640 S.O2    1  UNL1        0.0772
     13 O         137.9509  141.9340  157.9491 O.2     1  UNL1       -0.1498
     14 O         138.4527  139.3129  156.5789 O.2     1  UNL1       -0.1498
     15 N         137.4713  141.1178  156.0508 N.pl3   1  UNL1       -0.1936
     16 H         137.9671  141.5575  155.3228 H       1  UNL1        0.1758
     17 C         135.9852  140.9422  155.9468 C.ar    1  UNL1        0.1786
     18 N         135.1290  140.1155  156.8599 N.ar    1  UNL1       -0.2214
     19 C         133.7091  140.2248  156.3889 C.ar    1  UNL1        0.1079
     20 C         133.6877  141.1191  155.1847 C.ar    1  UNL1        0.0588
     21 S         135.0944  141.5624  154.9115 S.2     1  UNL1       -0.0497
     22 C         142.6752  139.1022  164.1505 C.3     1  UNL1        0.1166
     23 C         142.0665  139.2672  165.5116 C.ar    1  UNL1       -0.0015
     24 C         142.9492  139.4405  166.7119 C.ar    1  UNL1        0.0006
     25 C         142.3405  139.6055  168.0729 C.ar    1  UNL1        0.0378
     26 C         140.8492  139.5970  168.2335 C.ar    1  UNL1        0.1572
     27 C         139.9665  139.4237  167.0332 C.ar    1  UNL1        0.0915
     28 CL        138.4751  139.4153  167.1938 Cl      1  UNL1       -0.0791
     29 C         140.5752  139.2588  165.6722 C.ar    1  UNL1        0.0118
     30 O         140.2405  139.7620  169.5946 O.3     1  UNL1       -0.4036
     31 C         139.7135  141.0993  170.0234 C.3     1  UNL1        0.5753
     32 F         139.1865  142.4366  170.4523 F       1  UNL1       -0.1328
     33 F         138.3330  140.5219  170.1273 F       1  UNL1       -0.1328
     34 F         141.0940  141.6766  169.9195 F       1  UNL1       -0.1328
@<TRIPOS>BOND
     1     1     2    2
     2     2     3   am
     3     3    22    1
     4    22    23    1
     5    23    24   ar
     6    24    25   ar
     7    25    26   ar
     8    26    30    1
     9    30    31    1
    10    31    32    1
    11    31    33    1
    12    31    34    1
    13    26    27   ar
    14    27    28    1
    15    27    29   ar
    16     2     5    1
    17     5     6   ar
    18     6     7   ar
    19     7     8   ar
    20     8    12    1
    21    12    13    2
    22    12    14    2
    23    12    15    1
    24    15    17    1
    25    17    18   ar
    26    18    19   ar
    27    19    20   ar
    28    20    21   ar
    29     8     9   ar
    30     9    10    1
    31     9    11   ar
    32    29    23   ar
    33    11     5   ar
    34    21    17   ar
    35     3     4    1
    36    15    16    1
@<TRIPOS>MOLECULE
*****
 34 36 0 0 0
SMALL
GASTEIGER

@<TRIPOS>ATOM
      1 O         140.9070  136.6713  164.0625 O.2     1  UNL1       -0.2701
      2 C         141.4947  137.8770  163.3909 C.2     1  UNL1        0.2462
      3 N         142.4645  138.7498  164.1312 N.am    1  UNL1       -0.2969
      4 H         142.8502  139.5411  163.6905 H       1  UNL1        0.1501
      5 C         141.1126  138.2100  161.9792 C.ar    1  UNL1        0.0557
      6 C         142.1356  138.1252  160.8854 C.ar    1  UNL1        0.0060
      7 C         141.7535  138.4581  159.4737 C.ar    1  UNL1        0.0226
      8 C         140.3484  138.8760  159.1556 C.ar    1  UNL1        0.1525
      9 C         139.3254  138.9608  160.2494 C.ar    1  UNL1        0.1590
     10 F         137.9203  139.3786  159.9313 F       1  UNL1       -0.2027
     11 C         139.7075  138.6278  161.6612 C.ar    1  UNL1        0.0355
     12 S         139.9663  139.2089  157.7439 S.O2    1  UNL1        0.0772
     13 O         139.4228  137.8225  157.5640 O.2     1  UNL1       -0.1498
     14 O         140.5098  140.5953  157.9237 O.2     1  UNL1       -0.1498
     15 N         139.5843  139.5419  156.3321 N.pl3   1  UNL1       -0.1936
     16 H         140.2374  139.4249  155.6048 H       1  UNL1        0.1758
     17 C         138.2071  140.0531  156.0285 C.ar    1  UNL1        0.1786
     18 N         137.1854  140.4870  157.0374 N.ar    1  UNL1       -0.2214
     19 C         135.9567  140.9222  156.2952 C.ar    1  UNL1        0.1079
     20 C         136.2190  140.7573  154.8275 C.ar    1  UNL1        0.0588
     21 S         137.6098  140.2201  154.6627 S.2     1  UNL1       -0.0497
     22 C         142.8465  138.4168  165.5430 C.3     1  UNL1        0.1166
     23 C         142.2727  139.2070  166.6816 C.ar    1  UNL1       -0.0015
     24 C         141.0528  140.0532  166.4676 C.ar    1  UNL1        0.0006
     25 C         140.4790  140.8434  167.6061 C.ar    1  UNL1        0.0378
     26 C         141.1251  140.7874  168.9587 C.ar    1  UNL1        0.1572
     27 C         142.3450  139.9412  169.1727 C.ar    1  UNL1        0.0915
     28 CL        142.9911  139.8853  170.5252 Cl      1  UNL1       -0.0791
     29 C         142.9188  139.1511  168.0341 C.ar    1  UNL1        0.0118
     30 O         140.5512  141.5776  170.0973 O.3     1  UNL1       -0.4036
     31 C         140.5176  143.0756  170.0287 C.3     1  UNL1        0.5753
     32 F         140.4839  144.5737  169.9602 F       1  UNL1       -0.1328
     33 F         139.2089  143.0798  170.7617 F       1  UNL1       -0.1328
     34 F         141.8262  143.0715  169.2957 F       1  UNL1       -0.1328
@<TRIPOS>BOND
     1     1     2    2
     2     2     3   am
     3     3    22    1
     4    22    23    1
     5    23    24   ar
     6    24    25   ar
     7    25    26   ar
     8    26    30    1
     9    30    31    1
    10    31    32    1
    11    31    33    1
    12    31    34    1
    13    26    27   ar
    14    27    28    1
    15    27    29   ar
    16     2     5    1
    17     5     6   ar
    18     6     7   ar
    19     7     8   ar
    20     8    12    1
    21    12    13    2
    22    12    14    2
    23    12    15    1
    24    15    17    1
    25    17    18   ar
    26    18    19   ar
    27    19    20   ar
    28    20    21   ar
    29     8     9   ar
    30     9    10    1
    31     9    11   ar
    32    29    23   ar
    33    11     5   ar
    34    21    17   ar
    35     3     4    1
    36    15    16    1
@<TRIPOS>MOLECULE
*****
 34 36 0 0 0
SMALL
GASTEIGER

@<TRIPOS>ATOM
      1 O         137.9702  141.8155  164.8551 O.2     1  UNL1       -0.2701
      2 C         138.1650  140.5308  164.1057 C.2     1  UNL1        0.2462
      3 N         138.2184  139.2293  164.8497 N.am    1  UNL1       -0.2969
      4 H         138.3462  138.3861  164.3579 H       1  UNL1        0.1501
      5 C         138.3065  140.5475  162.6126 C.ar    1  UNL1        0.0557
      6 C         138.0558  141.8143  161.8495 C.ar    1  UNL1        0.0060
      7 C         138.1972  141.8310  160.3563 C.ar    1  UNL1        0.0226
      8 C         138.5894  140.5807  159.6261 C.ar    1  UNL1        0.1525
      9 C         138.8401  139.3139  160.3891 C.ar    1  UNL1        0.1590
     10 F         139.2323  138.0637  159.6590 F       1  UNL1       -0.2027
     11 C         138.6987  139.2973  161.8824 C.ar    1  UNL1        0.0355
     12 S         138.7309  140.5974  158.1329 S.O2    1  UNL1        0.0772
     13 O         140.2022  140.8522  158.2751 O.2     1  UNL1       -0.1498
     14 O         137.2596  140.3426  157.9907 O.2     1  UNL1       -0.1498
     15 N         138.8724  140.6141  156.6397 N.pl3   1  UNL1       -0.1936
     16 H         139.0193  141.4660  156.1687 H       1  UNL1        0.1758
     17 C         138.7900  139.3327  155.8642 C.ar    1  UNL1        0.1786
     18 N         139.1925  137.9751  156.3592 N.ar    1  UNL1       -0.2214
     19 C         138.9419  136.9873  155.2585 C.ar    1  UNL1        0.1079
     20 C         138.3846  137.7345  154.0832 C.ar    1  UNL1        0.0588
     21 S         138.2908  139.1840  154.4576 S.2     1  UNL1       -0.0497
     22 C         138.0769  139.2127  166.3429 C.3     1  UNL1        0.1166
     23 C         139.2327  139.6150  167.2103 C.ar    1  UNL1       -0.0015
     24 C         139.0026  139.9688  168.6497 C.ar    1  UNL1        0.0006
     25 C         140.1584  140.3712  169.5171 C.ar    1  UNL1        0.0378
     26 C         141.5441  140.4197  168.9450 C.ar    1  UNL1        0.1572
     27 C         141.7742  140.0660  167.5056 C.ar    1  UNL1        0.0915
     28 CL        143.1600  140.1145  166.9336 Cl      1  UNL1       -0.0791
     29 C         140.6185  139.6636  166.6383 C.ar    1  UNL1        0.0118
     30 O         142.6999  140.8221  169.8125 O.3     1  UNL1       -0.4036
     31 C         142.8583  142.2526  170.2348 C.3     1  UNL1        0.5753
     32 F         143.0167  143.6833  170.6572 F       1  UNL1       -0.1328
     33 F         143.6131  142.5421  168.9714 F       1  UNL1       -0.1328
     34 F         142.1035  141.9632  171.4983 F       1  UNL1       -0.1328
@<TRIPOS>BOND
     1     1     2    2
     2     2     3   am
     3     3    22    1
     4    22    23    1
     5    23    24   ar
     6    24    25   ar
     7    25    26   ar
     8    26    30    1
     9    30    31    1
    10    31    32    1
    11    31    33    1
    12    31    34    1
    13    26    27   ar
    14    27    28    1
    15    27    29   ar
    16     2     5    1
    17     5     6   ar
    18     6     7   ar
    19     7     8   ar
    20     8    12    1
    21    12    13    2
    22    12    14    2
    23    12    15    1
    24    15    17    1
    25    17    18   ar
    26    18    19   ar
    27    19    20   ar
    28    20    21   ar
    29     8     9   ar
    30     9    10    1
    31     9    11   ar
    32    29    23   ar
    33    11     5   ar
    34    21    17   ar
    35     3     4    1
    36    15    16    1
@<TRIPOS>MOLECULE
*****
 34 36 0 0 0
SMALL
GASTEIGER

@<TRIPOS>ATOM
      1 O         141.5018  140.7917  159.8672 O.2     1  UNL1       -0.2701
      2 C         140.3378  140.8818  158.9255 C.2     1  UNL1        0.2462
      3 N         139.3675  139.7426  158.8212 N.am    1  UNL1       -0.2969
      4 H         138.6035  139.8017  158.2031 H       1  UNL1        0.1501
      5 C         140.1440  142.1111  158.0881 C.ar    1  UNL1        0.0557
      6 C         139.9424  141.9855  156.6070 C.ar    1  UNL1        0.0060
      7 C         139.7486  143.2147  155.7695 C.ar    1  UNL1        0.0226
      8 C         139.7564  144.5697  156.4132 C.ar    1  UNL1        0.1525
      9 C         139.9579  144.6952  157.8943 C.ar    1  UNL1        0.1590
     10 F         139.9656  146.0500  158.5379 F       1  UNL1       -0.2027
     11 C         140.1517  143.4659  158.7317 C.ar    1  UNL1        0.0355
     12 S         139.5626  145.7989  155.5758 S.O2    1  UNL1        0.0772
     13 O         141.0220  146.1191  155.7080 O.2     1  UNL1       -0.1498
     14 O         138.1031  145.4787  155.4435 O.2     1  UNL1       -0.1498
     15 N         139.3687  147.0282  154.7383 N.pl3   1  UNL1       -0.1936
     16 H         139.4484  146.9739  153.7586 H       1  UNL1        0.1758
     17 C         139.0535  148.3401  155.3937 C.ar    1  UNL1        0.1786
     18 N         138.5333  148.5266  156.7882 N.ar    1  UNL1       -0.2214
     19 C         138.3614  149.9976  157.0260 C.ar    1  UNL1        0.1079
     20 C         138.7754  150.7203  155.7784 C.ar    1  UNL1        0.0588
     21 S         139.2032  149.6959  154.7696 S.2     1  UNL1       -0.0497
     22 C         139.5613  138.5133  159.6586 C.3     1  UNL1        0.1166
     23 C         139.4682  138.6016  161.1532 C.ar    1  UNL1       -0.0015
     24 C         138.3466  139.3667  161.7908 C.ar    1  UNL1        0.0006
     25 C         138.2535  139.4549  163.2853 C.ar    1  UNL1        0.0378
     26 C         139.2820  138.7780  164.1421 C.ar    1  UNL1        0.1572
     27 C         140.4035  138.0129  163.5044 C.ar    1  UNL1        0.0915
     28 CL        141.4320  137.3360  164.3613 Cl      1  UNL1       -0.0791
     29 C         140.4966  137.9247  162.0100 C.ar    1  UNL1        0.0118
     30 O         139.1888  138.8663  165.6367 O.3     1  UNL1       -0.4036
     31 C         138.0989  138.1368  166.3646 C.3     1  UNL1        0.5753
     32 F         137.0089  137.4072  167.0925 F       1  UNL1       -0.1328
     33 F         138.3729  136.9103  165.5457 F       1  UNL1       -0.1328
     34 F         137.8249  139.3633  167.1835 F       1  UNL1       -0.1328
@<TRIPOS>BOND
     1     1     2    2
     2     2     3   am
     3     3    22    1
     4    22    23    1
     5    23    24   ar
     6    24    25   ar
     7    25    26   ar
     8    26    30    1
     9    30    31    1
    10    31    32    1
    11    31    33    1
    12    31    34    1
    13    26    27   ar
    14    27    28    1
    15    27    29   ar
    16     2     5    1
    17     5     6   ar
    18     6     7   ar
    19     7     8   ar
    20     8    12    1
    21    12    13    2
    22    12    14    2
    23    12    15    1
    24    15    17    1
    25    17    18   ar
    26    18    19   ar
    27    19    20   ar
    28    20    21   ar
    29     8     9   ar
    30     9    10    1
    31     9    11   ar
    32    29    23   ar
    33    11     5   ar
    34    21    17   ar
    35     3     4    1
    36    15    16    1
@<TRIPOS>MOLECULE
*****
 34 36 0 0 0
SMALL
GASTEIGER

@<TRIPOS>ATOM
      1 O         137.7370  142.1916  164.3053 O.2     1  UNL1       -0.2701
      2 C         138.0446  140.9659  163.4972 C.2     1  UNL1        0.2462
      3 N         138.2503  139.6477  164.1828 N.am    1  UNL1       -0.2969
      4 H         138.4521  138.8432  163.6525 H       1  UNL1        0.1501
      5 C         138.1464  141.0584  162.0036 C.ar    1  UNL1        0.0557
      6 C         137.7543  139.8881  161.1512 C.ar    1  UNL1        0.0060
      7 C         137.8562  139.9805  159.6575 C.ar    1  UNL1        0.0226
      8 C         138.3502  141.2434  159.0162 C.ar    1  UNL1        0.1525
      9 C         138.7423  142.4137  159.8686 C.ar    1  UNL1        0.1590
     10 F         139.2362  143.6765  159.2273 F       1  UNL1       -0.2027
     11 C         138.6404  142.3212  161.3623 C.ar    1  UNL1        0.0355
     12 S         138.4520  141.3359  157.5225 S.O2    1  UNL1        0.0772
     13 O         137.1826  142.1340  157.4854 O.2     1  UNL1       -0.1498
     14 O         139.7215  140.5377  157.5597 O.2     1  UNL1       -0.1498
     15 N         138.5539  141.4283  156.0289 N.pl3   1  UNL1       -0.1936
     16 H         139.2838  141.9443  155.6163 H       1  UNL1        0.1758
     17 C         137.5436  140.7347  155.1638 C.ar    1  UNL1        0.1786
     18 N         137.0365  139.3353  155.3494 N.ar    1  UNL1       -0.2214
     19 C         136.0425  139.0544  154.2616 C.ar    1  UNL1        0.1079
     20 C         135.9353  140.2803  153.4039 C.ar    1  UNL1        0.0588
     21 S         136.8630  141.3188  153.9615 S.2     1  UNL1       -0.0497
     22 C         138.1484  139.5552  165.6765 C.3     1  UNL1        0.1166
     23 C         139.3737  139.7298  166.5241 C.ar    1  UNL1       -0.0015
     24 C         139.2394  139.9256  168.0051 C.ar    1  UNL1        0.0006
     25 C         140.4647  140.1001  168.8526 C.ar    1  UNL1        0.0378
     26 C         141.8241  140.0788  168.2190 C.ar    1  UNL1        0.1572
     27 C         141.9584  139.8830  166.7380 C.ar    1  UNL1        0.0915
     28 CL        143.3178  139.8617  166.1044 Cl      1  UNL1       -0.0791
     29 C         140.7331  139.7085  165.8905 C.ar    1  UNL1        0.0118
     30 O         143.0494  140.2534  169.0666 O.3     1  UNL1       -0.4036
     31 C         143.2826  141.5461  169.7907 C.3     1  UNL1        0.5753
     32 F         143.5158  142.8390  170.5147 F       1  UNL1       -0.1328
     33 F         143.8098  142.1588  168.5271 F       1  UNL1       -0.1328
     34 F         142.7554  140.9335  171.0543 F       1  UNL1       -0.1328
@<TRIPOS>BOND
     1     1     2    2
     2     2     3   am
     3     3    22    1
     4    22    23    1
     5    23    24   ar
     6    24    25   ar
     7    25    26   ar
     8    26    30    1
     9    30    31    1
    10    31    32    1
    11    31    33    1
    12    31    34    1
    13    26    27   ar
    14    27    28    1
    15    27    29   ar
    16     2     5    1
    17     5     6   ar
    18     6     7   ar
    19     7     8   ar
    20     8    12    1
    21    12    13    2
    22    12    14    2
    23    12    15    1
    24    15    17    1
    25    17    18   ar
    26    18    19   ar
    27    19    20   ar
    28    20    21   ar
    29     8     9   ar
    30     9    10    1
    31     9    11   ar
    32    29    23   ar
    33    11     5   ar
    34    21    17   ar
    35     3     4    1
    36    15    16    1
@<TRIPOS>MOLECULE
*****
 34 36 0 0 0
SMALL
GASTEIGER

@<TRIPOS>ATOM
      1 O         141.8985  144.1882  164.0870 O.2     1  UNL1       -0.2701
      2 C         142.8016  143.7665  162.9660 C.2     1  UNL1        0.2462
      3 N         144.1196  143.1173  163.2684 N.am    1  UNL1       -0.2969
      4 H         144.7123  142.8404  162.5326 H       1  UNL1        0.1501
      5 C         142.3866  143.9939  161.5426 C.ar    1  UNL1        0.0557
      6 C         143.0930  143.2754  160.4314 C.ar    1  UNL1        0.0060
      7 C         142.6781  143.5029  159.0081 C.ar    1  UNL1        0.0226
      8 C         141.5566  144.4489  158.6958 C.ar    1  UNL1        0.1525
      9 C         140.8502  145.1674  159.8069 C.ar    1  UNL1        0.1590
     10 F         139.7288  146.1134  159.4947 F       1  UNL1       -0.2027
     11 C         141.2652  144.9399  161.2304 C.ar    1  UNL1        0.0355
     12 S         141.1417  144.6763  157.2724 S.O2    1  UNL1        0.0772
     13 O         140.0030  143.7164  157.4510 O.2     1  UNL1       -0.1498
     14 O         142.2804  145.6363  157.0939 O.2     1  UNL1       -0.1498
     15 N         140.7267  144.9038  155.8490 N.pl3   1  UNL1       -0.1936
     16 H         140.7868  144.1699  155.1955 H       1  UNL1        0.1758
     17 C         140.2202  146.2494  155.4213 C.ar    1  UNL1        0.1786
     18 N         140.6515  147.0065  154.2003 N.ar    1  UNL1       -0.2214
     19 C         139.8914  148.2991  154.1638 C.ar    1  UNL1        0.1079
     20 C         138.9904  148.3409  155.3624 C.ar    1  UNL1        0.0588
     21 S         139.1936  147.0742  156.1395 S.2     1  UNL1       -0.0497
     22 C         144.5345  142.8898  164.6917 C.3     1  UNL1        0.1166
     23 C         143.6758  142.0604  165.6000 C.ar    1  UNL1       -0.0015
     24 C         143.2818  142.5878  166.9478 C.ar    1  UNL1        0.0006
     25 C         142.4231  141.7585  167.8559 C.ar    1  UNL1        0.0378
     26 C         141.9583  140.4018  167.4162 C.ar    1  UNL1        0.1572
     27 C         142.3523  139.8744  166.0684 C.ar    1  UNL1        0.0915
     28 CL        141.8876  138.5176  165.6288 Cl      1  UNL1       -0.0791
     29 C         143.2110  140.7037  165.1603 C.ar    1  UNL1        0.0118
     30 O         141.0996  139.5724  168.3245 O.3     1  UNL1       -0.4036
     31 C         139.9566  140.2059  169.0609 C.3     1  UNL1        0.5753
     32 F         138.8136  140.8393  169.7973 F       1  UNL1       -0.1328
     33 F         139.3448  140.6196  167.7554 F       1  UNL1       -0.1328
     34 F         140.5684  139.7921  170.3664 F       1  UNL1       -0.1328
@<TRIPOS>BOND
     1     1     2    2
     2     2     3   am
     3     3    22    1
     4    22    23    1
     5    23    24   ar
     6    24    25   ar
     7    25    26   ar
     8    26    30    1
     9    30    31    1
    10    31    32    1
    11    31    33    1
    12    31    34    1
    13    26    27   ar
    14    27    28    1
    15    27    29   ar
    16     2     5    1
    17     5     6   ar
    18     6     7   ar
    19     7     8   ar
    20     8    12    1
    21    12    13    2
    22    12    14    2
    23    12    15    1
    24    15    17    1
    25    17    18   ar
    26    18    19   ar
    27    19    20   ar
    28    20    21   ar
    29     8     9   ar
    30     9    10    1
    31     9    11   ar
    32    29    23   ar
    33    11     5   ar
    34    21    17   ar
    35     3     4    1
    36    15    16    1
