@<TRIPOS>MOLECULE
*****
 26 31 0 0 0
SMALL
GASTEIGER

@<TRIPOS>ATOM
      1 C         140.8262  144.2832  159.6479 C.2     1  UNL1        0.1207
      2 C         139.7697  143.8795  158.6626 C.2     1  UNL1        0.0342
      3 C         138.7151  142.8887  159.0577 C.2     1  UNL1        0.0215
      4 C         138.7171  142.3015  160.4380 C.2     1  UNL1        0.0772
      5 N         137.8126  141.3102  161.1083 N.2     1  UNL1       -0.2489
      6 C         138.3102  141.1013  162.5078 C.2     1  UNL1        0.0710
      7 C         139.5222  141.9634  162.7024 C.2     1  UNL1       -0.0077
      8 C         139.7737  142.7051  161.4232 C.2     1  UNL1        0.0003
      9 C         140.8282  143.6960  161.0282 C.3     1  UNL1        0.0914
     10 C         140.2402  141.9615  164.0195 C.3     1  UNL1        0.0478
     11 C         139.7463  141.0977  165.1418 C.3     1  UNL1        0.0846
     12 C         140.4643  141.0958  166.4588 C.ar    1  UNL1       -0.0081
     13 C         141.6763  141.9579  166.6534 C.ar    1  UNL1        0.0369
     14 C         142.3943  141.9561  167.9704 C.ar    1  UNL1        0.1761
     15 C         141.9004  141.0922  169.0927 C.ar    1  UNL1        0.1761
     16 C         140.6884  140.2301  168.8982 C.ar    1  UNL1        0.0357
     17 C         139.9704  140.2320  167.5811 C.ar    1  UNL1       -0.0203
     18 C         138.7583  139.3698  167.3865 C.3     1  UNL1        0.0435
     19 C         138.0403  139.3716  166.0695 C.3     1  UNL1        0.0774
     20 N         138.5343  140.2356  164.9472 N.3     1  UNL1       -0.2647
     21 C         137.8163  140.2374  163.6302 C.3     1  UNL1        0.1185
     22 O         142.8075  141.2976  170.2696 O.3     1  UNL1       -0.4346
     23 C         143.8620  142.2885  169.8745 C.3     1  UNL1        0.4294
     24 O         143.6067  142.6955  168.4536 O.3     1  UNL1       -0.4346
     25 C         141.9259  145.8021  157.8496 C.3     1  UNL1        0.2520
     26 O         141.8809  145.2741  159.2529 O.2     1  UNL1       -0.4753
@<TRIPOS>BOND
     1    25    26    1
     2    26     1    1
     3     1     2    2
     4     2     3    1
     5     3     4    2
     6     4     5    1
     7     5     6    2
     8     6     7    1
     9     7     8    2
    10     8     9    1
    11     7    10    1
    12    11    10    1
    13    11    12    1
    14    12    13   ar
    15    13    14   ar
    16    14    15   ar
    17    15    16   ar
    18    16    17   ar
    19    17    18    1
    20    18    19    1
    21    19    20    1
    22    20    21    1
    23    15    22    1
    24    22    23    1
    25    23    24    1
    26     9     1    1
    27    20    11    1
    28     8     4    1
    29    17    12   ar
    30    21     6    1
    31    24    14    1
@<TRIPOS>MOLECULE
*****
 26 31 0 0 0
SMALL
GASTEIGER

@<TRIPOS>ATOM
      1 C         141.0418  142.4679  169.7530 C.2     1  UNL1        0.1207
      2 C         140.6071  141.3344  170.6341 C.2     1  UNL1        0.0342
      3 C         139.8658  140.1700  170.0471 C.2     1  UNL1        0.0215
      4 C         139.5590  140.1391  168.5791 C.2     1  UNL1        0.0772
      5 N         138.8492  139.1325  167.7231 N.2     1  UNL1       -0.2489
      6 C         138.8451  139.6438  166.3130 C.2     1  UNL1        0.0710
      7 C         139.5525  140.9665  166.2976 C.2     1  UNL1       -0.0077
      8 C         139.9937  141.2726  167.6981 C.2     1  UNL1        0.0003
      9 C         140.7350  142.4370  168.2850 C.3     1  UNL1        0.0914
     10 C         139.7034  141.7213  165.0101 C.3     1  UNL1        0.0478
     11 C         139.1470  141.1534  163.7381 C.3     1  UNL1        0.0846
     12 C         139.2979  141.9082  162.4506 C.ar    1  UNL1       -0.0081
     13 C         140.0053  143.2309  162.4352 C.ar    1  UNL1        0.0369
     14 C         140.1562  143.9857  161.1478 C.ar    1  UNL1        0.1761
     15 C         139.5998  143.4178  159.8758 C.ar    1  UNL1        0.1761
     16 C         138.8925  142.0951  159.8912 C.ar    1  UNL1        0.0357
     17 C         138.7416  141.3404  161.1787 C.ar    1  UNL1       -0.0203
     18 C         138.0342  140.0176  161.1942 C.3     1  UNL1        0.0435
     19 C         137.8833  139.2628  162.4816 C.3     1  UNL1        0.0774
     20 N         138.4397  139.8308  163.7536 N.3     1  UNL1       -0.2647
     21 C         138.2887  139.0760  165.0410 C.3     1  UNL1        0.1185
     22 O         139.8991  144.3830  158.7673 O.3     1  UNL1       -0.4346
     23 C         140.6405  145.5474  159.3542 C.3     1  UNL1        0.4294
     24 O         140.7994  145.3019  160.8254 O.3     1  UNL1       -0.4346
     25 C         143.2280  143.4887  170.7168 C.3     1  UNL1        0.2520
     26 O         141.7832  143.6324  170.3399 O.2     1  UNL1       -0.4753
@<TRIPOS>BOND
     1    25    26    1
     2    26     1    1
     3     1     2    2
     4     2     3    1
     5     3     4    2
     6     4     5    1
     7     5     6    2
     8     6     7    1
     9     7     8    2
    10     8     9    1
    11     7    10    1
    12    11    10    1
    13    11    12    1
    14    12    13   ar
    15    13    14   ar
    16    14    15   ar
    17    15    16   ar
    18    16    17   ar
    19    17    18    1
    20    18    19    1
    21    19    20    1
    22    20    21    1
    23    15    22    1
    24    22    23    1
    25    23    24    1
    26     9     1    1
    27    20    11    1
    28     8     4    1
    29    17    12   ar
    30    21     6    1
    31    24    14    1
@<TRIPOS>MOLECULE
*****
 26 31 0 0 0
SMALL
GASTEIGER

@<TRIPOS>ATOM
      1 C         140.7562  142.3991  169.5358 C.2     1  UNL1        0.1207
      2 C         139.8542  141.6178  170.4447 C.2     1  UNL1        0.0342
      3 C         139.0543  140.4707  169.9024 C.2     1  UNL1        0.0215
      4 C         139.1564  140.1048  168.4512 C.2     1  UNL1        0.0772
      5 N         138.4945  139.0325  167.6375 N.2     1  UNL1       -0.2489
      6 C         138.9874  139.1511  166.2259 C.2     1  UNL1        0.0710
      7 C         139.9539  140.2967  166.1671 C.2     1  UNL1       -0.0077
      8 C         140.0584  140.8860  167.5424 C.2     1  UNL1        0.0003
      9 C         140.8583  142.0332  168.0847 C.3     1  UNL1        0.0914
     10 C         140.6141  140.6551  164.8687 C.3     1  UNL1        0.0478
     11 C         140.3077  139.8680  163.6292 C.3     1  UNL1        0.0846
     12 C         140.9678  140.2264  162.3307 C.ar    1  UNL1       -0.0081
     13 C         141.9344  141.3719  162.2720 C.ar    1  UNL1        0.0369
     14 C         142.5945  141.7304  160.9736 C.ar    1  UNL1        0.1761
     15 C         142.2881  140.9433  159.7340 C.ar    1  UNL1        0.1761
     16 C         141.3216  139.7977  159.7928 C.ar    1  UNL1        0.0357
     17 C         140.6614  139.4393  161.0912 C.ar    1  UNL1       -0.0203
     18 C         139.6948  138.2937  161.1500 C.3     1  UNL1        0.0435
     19 C         139.0347  137.9352  162.4484 C.3     1  UNL1        0.0774
     20 N         139.3411  138.7224  163.6879 N.3     1  UNL1       -0.2647
     21 C         138.6810  138.3640  164.9863 C.3     1  UNL1        0.1185
     22 O         143.0866  141.5258  158.6058 O.3     1  UNL1       -0.4346
     23 C         143.8866  142.6730  159.1481 C.3     1  UNL1        0.4294
     24 O         143.5824  142.7994  160.6115 O.3     1  UNL1       -0.4346
     25 C         142.9241  143.3054  170.6446 C.3     1  UNL1        0.2520
     26 O         141.5562  143.5464  170.0781 O.2     1  UNL1       -0.4753
@<TRIPOS>BOND
     1    25    26    1
     2    26     1    1
     3     1     2    2
     4     2     3    1
     5     3     4    2
     6     4     5    1
     7     5     6    2
     8     6     7    1
     9     7     8    2
    10     8     9    1
    11     7    10    1
    12    11    10    1
    13    11    12    1
    14    12    13   ar
    15    13    14   ar
    16    14    15   ar
    17    15    16   ar
    18    16    17   ar
    19    17    18    1
    20    18    19    1
    21    19    20    1
    22    20    21    1
    23    15    22    1
    24    22    23    1
    25    23    24    1
    26     9     1    1
    27    20    11    1
    28     8     4    1
    29    17    12   ar
    30    21     6    1
    31    24    14    1
@<TRIPOS>MOLECULE
*****
 26 31 0 0 0
SMALL
GASTEIGER

@<TRIPOS>ATOM
      1 C         141.2832  141.9143  170.0960 C.2     1  UNL1        0.1207
      2 C         141.7497  140.7409  170.9057 C.2     1  UNL1        0.0342
      3 C         142.4295  139.5867  170.2307 C.2     1  UNL1        0.0215
      4 C         142.6428  139.6059  168.7460 C.2     1  UNL1        0.0772
      5 N         143.2774  138.6201  167.8104 N.2     1  UNL1       -0.2489
      6 C         143.2031  139.1842  166.4225 C.2     1  UNL1        0.0710
      7 C         142.5226  140.5187  166.5004 C.2     1  UNL1       -0.0077
      8 C         142.1764  140.7793  167.9364 C.2     1  UNL1        0.0003
      9 C         141.4965  141.9335  168.6114 C.3     1  UNL1        0.0914
     10 C         142.3062  141.3241  165.2536 C.3     1  UNL1        0.0478
     11 C         142.7703  140.7951  163.9290 C.3     1  UNL1        0.0846
     12 C         142.5539  141.6005  162.6821 C.ar    1  UNL1       -0.0081
     13 C         141.8734  142.9350  162.7601 C.ar    1  UNL1        0.0369
     14 C         141.6569  143.7404  161.5133 C.ar    1  UNL1        0.1761
     15 C         142.1210  143.2114  160.1886 C.ar    1  UNL1        0.1761
     16 C         142.8015  141.8769  160.1107 C.ar    1  UNL1        0.0357
     17 C         143.0180  141.0715  161.3576 C.ar    1  UNL1       -0.0203
     18 C         143.6985  139.7369  161.2797 C.3     1  UNL1        0.0435
     19 C         143.9149  138.9315  162.5264 C.3     1  UNL1        0.0774
     20 N         143.4508  139.4606  163.8511 N.3     1  UNL1       -0.2647
     21 C         143.6672  138.6552  165.0979 C.3     1  UNL1        0.1185
     22 O         141.7720  144.2229  159.1374 O.3     1  UNL1       -0.4346
     23 C         141.0921  145.3771  159.8124 C.3     1  UNL1        0.4294
     24 O         141.0210  145.0789  161.2808 O.3     1  UNL1       -0.4346
     25 C         140.3040  144.3189  169.9982 C.3     1  UNL1        0.2520
     26 O         140.6033  143.0686  170.7711 O.2     1  UNL1       -0.4753
@<TRIPOS>BOND
     1    25    26    1
     2    26     1    1
     3     1     2    2
     4     2     3    1
     5     3     4    2
     6     4     5    1
     7     5     6    2
     8     6     7    1
     9     7     8    2
    10     8     9    1
    11     7    10    1
    12    11    10    1
    13    11    12    1
    14    12    13   ar
    15    13    14   ar
    16    14    15   ar
    17    15    16   ar
    18    16    17   ar
    19    17    18    1
    20    18    19    1
    21    19    20    1
    22    20    21    1
    23    15    22    1
    24    22    23    1
    25    23    24    1
    26     9     1    1
    27    20    11    1
    28     8     4    1
    29    17    12   ar
    30    21     6    1
    31    24    14    1
@<TRIPOS>MOLECULE
*****
 26 31 0 0 0
SMALL
GASTEIGER

@<TRIPOS>ATOM
      1 C         142.1560  144.0812  160.1145 C.2     1  UNL1        0.1207
      2 C         142.8799  143.3516  159.0220 C.2     1  UNL1        0.0342
      3 C         143.5487  142.0404  159.3112 C.2     1  UNL1        0.0215
      4 C         143.4935  141.4589  160.6928 C.2     1  UNL1        0.0772
      5 N         144.0541  140.1942  161.2726 N.2     1  UNL1       -0.2489
      6 C         143.6766  140.1422  162.7233 C.2     1  UNL1        0.0710
      7 C         142.8827  141.3748  163.0401 C.2     1  UNL1       -0.0077
      8 C         142.7695  142.1885  161.7852 C.2     1  UNL1        0.0003
      9 C         142.1008  143.4997  161.4961 C.3     1  UNL1        0.0914
     10 C         142.3654  141.5968  164.4306 C.3     1  UNL1        0.0478
     11 C         142.6420  140.5864  165.5040 C.3     1  UNL1        0.0846
     12 C         142.1247  140.8085  166.8944 C.ar    1  UNL1       -0.0081
     13 C         141.3308  142.0411  167.2112 C.ar    1  UNL1        0.0369
     14 C         140.8135  142.2632  168.6016 C.ar    1  UNL1        0.1761
     15 C         141.0901  141.2527  169.6751 C.ar    1  UNL1        0.1761
     16 C         141.8840  140.0201  169.3583 C.ar    1  UNL1        0.0357
     17 C         142.4013  139.7980  167.9678 C.ar    1  UNL1       -0.0203
     18 C         143.1953  138.5654  167.6510 C.3     1  UNL1        0.0435
     19 C         143.7126  138.3433  166.2606 C.3     1  UNL1        0.0774
     20 N         143.4359  139.3538  165.1872 N.3     1  UNL1       -0.2647
     21 C         143.9532  139.1317  163.7968 C.3     1  UNL1        0.1185
     22 O         140.4556  141.7392  170.9442 O.3     1  UNL1       -0.4346
     23 C         139.7869  143.0503  170.6551 C.3     1  UNL1        0.4294
     24 O         140.0080  143.3742  169.2073 O.3     1  UNL1       -0.4346
     25 C         140.5464  145.5144  158.6634 C.3     1  UNL1        0.2520
     26 O         141.4872  145.3925  159.8254 O.2     1  UNL1       -0.4753
@<TRIPOS>BOND
     1    25    26    1
     2    26     1    1
     3     1     2    2
     4     2     3    1
     5     3     4    2
     6     4     5    1
     7     5     6    2
     8     6     7    1
     9     7     8    2
    10     8     9    1
    11     7    10    1
    12    11    10    1
    13    11    12    1
    14    12    13   ar
    15    13    14   ar
    16    14    15   ar
    17    15    16   ar
    18    16    17   ar
    19    17    18    1
    20    18    19    1
    21    19    20    1
    22    20    21    1
    23    15    22    1
    24    22    23    1
    25    23    24    1
    26     9     1    1
    27    20    11    1
    28     8     4    1
    29    17    12   ar
    30    21     6    1
    31    24    14    1
@<TRIPOS>MOLECULE
*****
 26 31 0 0 0
SMALL
GASTEIGER

@<TRIPOS>ATOM
      1 C         143.0480  140.2704  159.4658 C.2     1  UNL1        0.1207
      2 C         142.2049  139.5232  158.4754 C.2     1  UNL1        0.0342
      3 C         140.9469  138.8411  158.9250 C.2     1  UNL1        0.0215
      4 C         140.5321  138.9061  160.3651 C.2     1  UNL1        0.0772
      5 N         139.3530  138.3363  161.0966 N.2     1  UNL1       -0.2489
      6 C         139.4674  138.7313  162.5391 C.2     1  UNL1        0.0710
      7 C         140.7172  139.5452  162.6990 C.2     1  UNL1       -0.0077
      8 C         141.3752  139.6532  161.3555 C.2     1  UNL1        0.0003
      9 C         142.6331  140.3354  160.9058 C.3     1  UNL1        0.0914
     10 C         141.0946  140.0829  164.0476 C.3     1  UNL1        0.0478
     11 C         140.2222  139.8066  165.2361 C.3     1  UNL1        0.0846
     12 C         140.5996  140.3442  166.5847 C.ar    1  UNL1       -0.0081
     13 C         141.8493  141.1582  166.7446 C.ar    1  UNL1        0.0369
     14 C         142.2267  141.6958  168.0932 C.ar    1  UNL1        0.1761
     15 C         141.3544  141.4195  169.2817 C.ar    1  UNL1        0.1761
     16 C         140.1046  140.6056  169.1218 C.ar    1  UNL1        0.0357
     17 C         139.7273  140.0680  167.7732 C.ar    1  UNL1       -0.0203
     18 C         138.4774  139.2540  167.6132 C.3     1  UNL1        0.0435
     19 C         138.1000  138.7163  166.2647 C.3     1  UNL1        0.0774
     20 N         138.9725  138.9927  165.0761 N.3     1  UNL1       -0.2647
     21 C         138.5951  138.4550  163.7276 C.3     1  UNL1        0.1185
     22 O         141.9782  142.0763  170.4773 O.3     1  UNL1       -0.4346
     23 C         143.2362  142.7585  170.0277 C.3     1  UNL1        0.4294
     24 O         143.3898  142.5233  168.5542 O.3     1  UNL1       -0.4346
     25 C         144.3664  142.4502  158.9552 C.3     1  UNL1        0.2520
     26 O         144.3060  140.9526  159.0162 O.2     1  UNL1       -0.4753
@<TRIPOS>BOND
     1    25    26    1
     2    26     1    1
     3     1     2    2
     4     2     3    1
     5     3     4    2
     6     4     5    1
     7     5     6    2
     8     6     7    1
     9     7     8    2
    10     8     9    1
    11     7    10    1
    12    11    10    1
    13    11    12    1
    14    12    13   ar
    15    13    14   ar
    16    14    15   ar
    17    15    16   ar
    18    16    17   ar
    19    17    18    1
    20    18    19    1
    21    19    20    1
    22    20    21    1
    23    15    22    1
    24    22    23    1
    25    23    24    1
    26     9     1    1
    27    20    11    1
    28     8     4    1
    29    17    12   ar
    30    21     6    1
    31    24    14    1
@<TRIPOS>MOLECULE
*****
 26 31 0 0 0
SMALL
GASTEIGER

@<TRIPOS>ATOM
      1 C         140.6432  142.1052  168.4230 C.2     1  UNL1        0.1207
      2 C         140.0305  140.9684  169.1861 C.2     1  UNL1        0.0342
      3 C         139.2717  139.8989  168.4578 C.2     1  UNL1        0.0215
      4 C         139.1256  139.9662  166.9664 C.2     1  UNL1        0.0772
      5 N         138.4395  139.0647  165.9834 N.2     1  UNL1       -0.2489
      6 C         138.6281  139.6442  164.6129 C.2     1  UNL1        0.0710
      7 C         139.4309  140.9040  164.7488 C.2     1  UNL1       -0.0077
      8 C         139.7384  141.1030  166.2033 C.2     1  UNL1        0.0003
      9 C         140.4972  142.1725  166.9316 C.3     1  UNL1        0.0914
     10 C         139.7781  141.7072  163.5304 C.3     1  UNL1        0.0478
     11 C         139.3227  141.2506  162.1762 C.3     1  UNL1        0.0846
     12 C         139.6699  142.0537  160.9578 C.ar    1  UNL1       -0.0081
     13 C         140.4727  143.3135  161.0938 C.ar    1  UNL1        0.0369
     14 C         140.8200  144.1167  159.8755 C.ar    1  UNL1        0.1761
     15 C         140.3645  143.6601  158.5212 C.ar    1  UNL1        0.1761
     16 C         139.5617  142.4003  158.3852 C.ar    1  UNL1        0.0357
     17 C         139.2144  141.5971  159.6036 C.ar    1  UNL1       -0.0203
     18 C         138.4116  140.3373  159.4677 C.3     1  UNL1        0.0435
     19 C         138.0643  139.5341  160.6860 C.3     1  UNL1        0.0774
     20 N         138.5199  139.9908  162.0403 N.3     1  UNL1       -0.2647
     21 C         138.1726  139.1876  163.2586 C.3     1  UNL1        0.1185
     22 O         140.8552  144.6517  157.5083 O.3     1  UNL1       -0.4346
     23 C         141.6140  145.7211  158.2366 C.3     1  UNL1        0.4294
     24 O         141.5922  145.3905  159.6996 O.3     1  UNL1       -0.4346
     25 C         142.3297  142.8061  170.2710 C.3     1  UNL1        0.2520
     26 O         141.4021  143.1748  169.1513 O.2     1  UNL1       -0.4753
@<TRIPOS>BOND
     1    25    26    1
     2    26     1    1
     3     1     2    2
     4     2     3    1
     5     3     4    2
     6     4     5    1
     7     5     6    2
     8     6     7    1
     9     7     8    2
    10     8     9    1
    11     7    10    1
    12    11    10    1
    13    11    12    1
    14    12    13   ar
    15    13    14   ar
    16    14    15   ar
    17    15    16   ar
    18    16    17   ar
    19    17    18    1
    20    18    19    1
    21    19    20    1
    22    20    21    1
    23    15    22    1
    24    22    23    1
    25    23    24    1
    26     9     1    1
    27    20    11    1
    28     8     4    1
    29    17    12   ar
    30    21     6    1
    31    24    14    1
@<TRIPOS>MOLECULE
*****
 26 31 0 0 0
SMALL
GASTEIGER

@<TRIPOS>ATOM
      1 C         142.5815  143.9383  157.5979 C.2     1  UNL1        0.1207
      2 C         141.7870  145.1158  157.1160 C.2     1  UNL1        0.0342
      3 C         140.8501  145.8216  158.0509 C.2     1  UNL1        0.0215
      4 C         140.7076  145.3499  159.4677 C.2     1  UNL1        0.0772
      5 N         139.8695  145.8424  160.6100 N.2     1  UNL1       -0.2489
      6 C         140.1460  144.9692  161.7979 C.2     1  UNL1        0.0710
      7 C         141.1550  143.9371  161.3897 C.2     1  UNL1       -0.0077
      8 C         141.5021  144.1724  159.9496 C.2     1  UNL1        0.0003
      9 C         142.4391  143.4666  159.0147 C.3     1  UNL1        0.0914
     10 C         141.6274  142.9164  162.3822 C.3     1  UNL1        0.0478
     11 C         141.0907  142.9277  163.7828 C.3     1  UNL1        0.0846
     12 C         141.5631  141.9070  164.7753 C.ar    1  UNL1       -0.0081
     13 C         142.5721  140.8749  164.3671 C.ar    1  UNL1        0.0369
     14 C         143.0445  139.8542  165.3596 C.ar    1  UNL1        0.1761
     15 C         142.5078  139.8655  166.7602 C.ar    1  UNL1        0.1761
     16 C         141.4987  140.8976  167.1685 C.ar    1  UNL1        0.0357
     17 C         141.0264  141.9183  166.1759 C.ar    1  UNL1       -0.0203
     18 C         140.0173  142.9505  166.5841 C.3     1  UNL1        0.0435
     19 C         139.5449  143.9712  165.5917 C.3     1  UNL1        0.0774
     20 N         140.0817  143.9598  164.1910 N.3     1  UNL1       -0.2647
     21 C         139.6093  144.9805  163.1986 C.3     1  UNL1        0.1185
     22 O         143.1554  138.7419  167.5139 O.3     1  UNL1       -0.4346
     23 C         144.0923  138.0361  166.5790 C.3     1  UNL1        0.4294
     24 O         144.0238  138.7235  165.2476 O.3     1  UNL1       -0.4346
     25 C         144.5071  142.2402  157.1997 C.3     1  UNL1        0.2520
     26 O         143.5184  143.2325  156.6630 O.2     1  UNL1       -0.4753
@<TRIPOS>BOND
     1    25    26    1
     2    26     1    1
     3     1     2    2
     4     2     3    1
     5     3     4    2
     6     4     5    1
     7     5     6    2
     8     6     7    1
     9     7     8    2
    10     8     9    1
    11     7    10    1
    12    11    10    1
    13    11    12    1
    14    12    13   ar
    15    13    14   ar
    16    14    15   ar
    17    15    16   ar
    18    16    17   ar
    19    17    18    1
    20    18    19    1
    21    19    20    1
    22    20    21    1
    23    15    22    1
    24    22    23    1
    25    23    24    1
    26     9     1    1
    27    20    11    1
    28     8     4    1
    29    17    12   ar
    30    21     6    1
    31    24    14    1
@<TRIPOS>MOLECULE
*****
 26 31 0 0 0
SMALL
GASTEIGER

@<TRIPOS>ATOM
      1 C         142.4401  139.8822  167.5659 C.2     1  UNL1        0.1207
      2 C         141.6059  140.3964  168.7015 C.2     1  UNL1        0.0342
      3 C         140.7186  141.5889  168.5002 C.2     1  UNL1        0.0215
      4 C         140.6655  142.2672  167.1634 C.2     1  UNL1        0.0772
      5 N         139.8913  143.4534  166.6698 N.2     1  UNL1       -0.2489
      6 C         140.2470  143.6722  165.2292 C.2     1  UNL1        0.0710
      7 C         141.2411  142.6213  164.8324 C.2     1  UNL1       -0.0077
      8 C         141.4997  141.7530  166.0278 C.2     1  UNL1        0.0003
      9 C         142.3870  140.5604  166.2290 C.3     1  UNL1        0.0914
     10 C         141.7823  142.5909  163.4337 C.3     1  UNL1        0.0478
     11 C         141.3296  143.6113  162.4320 C.3     1  UNL1        0.0846
     12 C         141.8708  143.5809  161.0333 C.ar    1  UNL1       -0.0081
     13 C         142.8649  142.5299  160.6365 C.ar    1  UNL1        0.0369
     14 C         143.4061  142.4995  159.2379 C.ar    1  UNL1        0.1761
     15 C         142.9533  143.5199  158.2361 C.ar    1  UNL1        0.1761
     16 C         141.9593  144.5708  158.6328 C.ar    1  UNL1        0.0357
     17 C         141.4180  144.6012  160.0315 C.ar    1  UNL1       -0.0203
     18 C         140.4239  145.6522  160.4283 C.3     1  UNL1        0.0435
     19 C         139.8827  145.6827  161.8269 C.3     1  UNL1        0.0774
     20 N         140.3355  144.6622  162.8287 N.3     1  UNL1       -0.2647
     21 C         139.7943  144.6927  164.2273 C.3     1  UNL1        0.1185
     22 O         143.6564  143.2415  156.9407 O.3     1  UNL1       -0.4346
     23 C         144.5437  142.0490  157.1419 C.3     1  UNL1        0.4294
     24 O         144.3891  141.5904  158.5617 O.3     1  UNL1       -0.4346
     25 C         143.9059  137.9765  166.5809 C.3     1  UNL1        0.2520
     26 O         143.3275  138.6896  167.7671 O.2     1  UNL1       -0.4753
@<TRIPOS>BOND
     1    25    26    1
     2    26     1    1
     3     1     2    2
     4     2     3    1
     5     3     4    2
     6     4     5    1
     7     5     6    2
     8     6     7    1
     9     7     8    2
    10     8     9    1
    11     7    10    1
    12    11    10    1
    13    11    12    1
    14    12    13   ar
    15    13    14   ar
    16    14    15   ar
    17    15    16   ar
    18    16    17   ar
    19    17    18    1
    20    18    19    1
    21    19    20    1
    22    20    21    1
    23    15    22    1
    24    22    23    1
    25    23    24    1
    26     9     1    1
    27    20    11    1
    28     8     4    1
    29    17    12   ar
    30    21     6    1
    31    24    14    1
