@<TRIPOS>MOLECULE
*****
 30 33 0 0 0
SMALL
GASTEIGER

@<TRIPOS>ATOM
      1 O         140.5640  143.2254  166.4568 O.3     1  UNL1       -0.3782
      2 C         141.4983  142.0913  166.1556 C.3     1  UNL1        0.1326
      3 H         140.3219  143.6729  165.6309 H       1  UNL1        0.2111
      4 C         141.5660  141.7589  167.6168 C.ar    1  UNL1        0.0251
      5 C         140.3712  141.1725  168.3086 C.ar    1  UNL1        0.0014
      6 C         140.4389  140.8401  169.7697 C.ar    1  UNL1        0.0204
      7 C         141.7012  141.0941  170.5390 C.ar    1  UNL1        0.0989
      8 N         142.8960  141.6805  169.8471 N.ar    1  UNL1       -0.2426
      9 C         142.8284  142.0129  168.3860 C.ar    1  UNL1        0.0971
     10 C         142.4326  140.9572  165.8544 C.ar    1  UNL1        0.0251
     11 C         142.1290  139.5796  166.3645 C.ar    1  UNL1        0.0014
     12 C         143.0634  138.4455  166.0632 C.ar    1  UNL1        0.0204
     13 C         144.3013  138.6889  165.2519 C.ar    1  UNL1        0.0989
     14 N         144.6049  140.0664  164.7418 N.ar    1  UNL1       -0.2426
     15 C         143.6706  141.2005  165.0430 C.ar    1  UNL1        0.0971
     16 C         141.4307  142.4236  164.6945 C.3     1  UNL1        0.0633
     17 C         140.1746  143.0034  164.1145 C.ar    1  UNL1       -0.0015
     18 C         140.1219  144.4550  163.7403 C.ar    1  UNL1       -0.0011
     19 C         138.8659  145.0349  163.1603 C.ar    1  UNL1        0.0204
     20 C         137.6628  144.1631  162.9547 C.ar    1  UNL1        0.0988
     21 N         137.7155  142.7115  163.3289 N.ar    1  UNL1       -0.2442
     22 C         138.9715  142.1317  163.9088 C.ar    1  UNL1        0.0775
     23 C         139.0243  140.6801  164.2831 C.ar    1  UNL1        0.0190
     24 C         138.2813  140.1893  165.4901 C.ar    1  UNL1        0.0129
     25 C         138.3341  138.7376  165.8644 C.ar    1  UNL1        0.0586
     26 CL        137.5911  138.2469  167.0715 Cl      1  UNL1       -0.0822
     27 C         139.1298  137.7769  165.0316 C.ar    1  UNL1        0.0228
     28 C         139.8727  138.2677  163.8245 C.ar    1  UNL1        0.0586
     29 CL        140.6685  137.3069  162.9916 Cl      1  UNL1       -0.0822
     30 C         139.8200  139.7193  163.4502 C.ar    1  UNL1        0.0129
@<TRIPOS>BOND
     1     1     2    1
     2     2    16    1
     3    16    17    1
     4    17    18   ar
     5    18    19   ar
     6    19    20   ar
     7    20    21   ar
     8    21    22   ar
     9    22    23    1
    10    23    24   ar
    11    24    25   ar
    12    25    26    1
    13    25    27   ar
    14    27    28   ar
    15    28    29    1
    16    28    30   ar
    17     2     4    1
    18     4     5   ar
    19     5     6   ar
    20     6     7   ar
    21     7     8   ar
    22     8     9   ar
    23     2    10    1
    24    10    11   ar
    25    11    12   ar
    26    12    13   ar
    27    13    14   ar
    28    14    15   ar
    29    22    17   ar
    30    30    23   ar
    31     9     4   ar
    32    15    10   ar
    33     1     3    1
@<TRIPOS>MOLECULE
*****
 30 33 0 0 0
SMALL
GASTEIGER

@<TRIPOS>ATOM
      1 O         142.5929  141.9049  167.1201 O.3     1  UNL1       -0.3782
      2 C         142.0099  142.3660  165.8172 C.3     1  UNL1        0.1326
      3 H         141.9463  142.0417  167.8301 H       1  UNL1        0.2111
      4 C         143.2770  141.9796  165.1134 C.ar    1  UNL1        0.0251
      5 C         143.6406  140.5319  164.9644 C.ar    1  UNL1        0.0014
      6 C         144.9076  140.1455  164.2607 C.ar    1  UNL1        0.0204
      7 C         145.8110  141.2067  163.7059 C.ar    1  UNL1        0.0989
      8 N         145.4473  142.6543  163.8549 N.ar    1  UNL1       -0.2426
      9 C         144.1803  143.0407  164.5587 C.ar    1  UNL1        0.0971
     10 C         141.4269  142.8270  164.5144 C.ar    1  UNL1        0.0251
     11 C         141.3990  141.9002  163.3354 C.ar    1  UNL1        0.0014
     12 C         140.8160  142.3613  162.0324 C.ar    1  UNL1        0.0204
     13 C         140.2608  143.7492  161.9086 C.ar    1  UNL1        0.0989
     14 N         140.2887  144.6761  163.0876 N.ar    1  UNL1       -0.2426
     15 C         140.8717  144.2151  164.3905 C.ar    1  UNL1        0.0971
     16 C         140.7428  142.7524  166.5210 C.3     1  UNL1        0.0633
     17 C         140.2669  141.9563  167.6999 C.ar    1  UNL1       -0.0015
     18 C         140.3971  142.5169  169.0852 C.ar    1  UNL1       -0.0011
     19 C         139.9213  141.7209  170.2641 C.ar    1  UNL1        0.0204
     20 C         139.3152  140.3644  170.0578 C.ar    1  UNL1        0.0988
     21 N         139.1850  139.8039  168.6726 N.ar    1  UNL1       -0.2442
     22 C         139.6609  140.5998  167.4936 C.ar    1  UNL1        0.0775
     23 C         139.5307  140.0393  166.1084 C.ar    1  UNL1        0.0190
     24 C         138.5086  140.6009  165.1651 C.ar    1  UNL1        0.0129
     25 C         138.3784  140.0404  163.7798 C.ar    1  UNL1        0.0586
     26 CL        137.3563  140.6020  162.8365 Cl      1  UNL1       -0.0822
     27 C         139.2704  138.9183  163.3379 C.ar    1  UNL1        0.0228
     28 C         140.2925  138.3567  164.2812 C.ar    1  UNL1        0.0586
     29 CL        141.1845  137.2346  163.8393 Cl      1  UNL1       -0.0822
     30 C         140.4227  138.9172  165.6665 C.ar    1  UNL1        0.0129
@<TRIPOS>BOND
     1     1     2    1
     2     2    16    1
     3    16    17    1
     4    17    18   ar
     5    18    19   ar
     6    19    20   ar
     7    20    21   ar
     8    21    22   ar
     9    22    23    1
    10    23    24   ar
    11    24    25   ar
    12    25    26    1
    13    25    27   ar
    14    27    28   ar
    15    28    29    1
    16    28    30   ar
    17     2     4    1
    18     4     5   ar
    19     5     6   ar
    20     6     7   ar
    21     7     8   ar
    22     8     9   ar
    23     2    10    1
    24    10    11   ar
    25    11    12   ar
    26    12    13   ar
    27    13    14   ar
    28    14    15   ar
    29    22    17   ar
    30    30    23   ar
    31     9     4   ar
    32    15    10   ar
    33     1     3    1
@<TRIPOS>MOLECULE
*****
 30 33 0 0 0
SMALL
GASTEIGER

@<TRIPOS>ATOM
      1 O         142.6944  142.0946  166.8615 O.3     1  UNL1       -0.3782
      2 C         142.7732  141.3177  165.5809 C.3     1  UNL1        0.1326
      3 H         142.6282  141.4799  167.6090 H       1  UNL1        0.2111
      4 C         142.8527  142.6005  164.8075 C.ar    1  UNL1        0.0251
      5 C         141.6523  143.4951  164.7133 C.ar    1  UNL1        0.0014
      6 C         141.7318  144.7779  163.9400 C.ar    1  UNL1        0.0204
      7 C         143.0116  145.1661  163.2608 C.ar    1  UNL1        0.0989
      8 N         144.2119  144.2715  163.3549 N.ar    1  UNL1       -0.2426
      9 C         144.1325  142.9887  164.1283 C.ar    1  UNL1        0.0971
     10 C         142.8519  140.5408  164.3002 C.ar    1  UNL1        0.0251
     11 C         141.7910  140.7105  163.2535 C.ar    1  UNL1        0.0014
     12 C         141.8698  139.9336  161.9728 C.ar    1  UNL1        0.0204
     13 C         143.0096  138.9869  161.7388 C.ar    1  UNL1        0.0989
     14 N         144.0705  138.8172  162.7855 N.ar    1  UNL1       -0.2426
     15 C         143.9917  139.5941  164.0661 C.ar    1  UNL1        0.0971
     16 C         142.6937  140.0349  166.3542 C.3     1  UNL1        0.0633
     17 C         141.9192  139.9796  167.6376 C.ar    1  UNL1       -0.0015
     18 C         142.6441  139.9582  168.9507 C.ar    1  UNL1       -0.0011
     19 C         141.8697  139.9029  170.2341 C.ar    1  UNL1        0.0204
     20 C         140.3704  139.8690  170.2045 C.ar    1  UNL1        0.0988
     21 N         139.6455  139.8903  168.8915 N.ar    1  UNL1       -0.2442
     22 C         140.4199  139.9456  167.6080 C.ar    1  UNL1        0.0775
     23 C         139.6950  139.9670  166.2950 C.ar    1  UNL1        0.0190
     24 C         139.6026  138.7184  165.4689 C.ar    1  UNL1        0.0129
     25 C         138.8777  138.7398  164.1559 C.ar    1  UNL1        0.0586
     26 CL        138.7854  137.4912  163.3297 Cl      1  UNL1       -0.0822
     27 C         138.2452  140.0097  163.6689 C.ar    1  UNL1        0.0228
     28 C         138.3375  141.2583  164.4951 C.ar    1  UNL1        0.0586
     29 CL        137.7050  142.5283  164.0082 Cl      1  UNL1       -0.0822
     30 C         139.0624  141.2369  165.8081 C.ar    1  UNL1        0.0129
@<TRIPOS>BOND
     1     1     2    1
     2     2    16    1
     3    16    17    1
     4    17    18   ar
     5    18    19   ar
     6    19    20   ar
     7    20    21   ar
     8    21    22   ar
     9    22    23    1
    10    23    24   ar
    11    24    25   ar
    12    25    26    1
    13    25    27   ar
    14    27    28   ar
    15    28    29    1
    16    28    30   ar
    17     2     4    1
    18     4     5   ar
    19     5     6   ar
    20     6     7   ar
    21     7     8   ar
    22     8     9   ar
    23     2    10    1
    24    10    11   ar
    25    11    12   ar
    26    12    13   ar
    27    13    14   ar
    28    14    15   ar
    29    22    17   ar
    30    30    23   ar
    31     9     4   ar
    32    15    10   ar
    33     1     3    1
@<TRIPOS>MOLECULE
*****
 30 33 0 0 0
SMALL
GASTEIGER

@<TRIPOS>ATOM
      1 O         142.9082  144.3779  164.1597 O.3     1  UNL1       -0.3782
      2 C         141.6916  143.5104  164.0283 C.3     1  UNL1        0.1326
      3 H         143.4333  144.0853  164.9211 H       1  UNL1        0.2111
      4 C         141.2600  144.2978  162.8266 C.ar    1  UNL1        0.0251
      5 C         140.0883  145.2294  162.9217 C.ar    1  UNL1        0.0014
      6 C         139.6566  146.0167  161.7201 C.ar    1  UNL1        0.0204
      7 C         140.3968  145.8723  160.4235 C.ar    1  UNL1        0.0989
      8 N         141.5685  144.9407  160.3284 N.ar    1  UNL1       -0.2426
      9 C         142.0002  144.1534  161.5300 C.ar    1  UNL1        0.0971
     10 C         140.4751  142.6430  163.8968 C.ar    1  UNL1        0.0251
     11 C         139.3086  142.8423  164.8186 C.ar    1  UNL1        0.0014
     12 C         138.0920  141.9748  164.6871 C.ar    1  UNL1        0.0204
     13 C         138.0418  140.9079  163.6339 C.ar    1  UNL1        0.0989
     14 N         139.2083  140.7086  162.7122 N.ar    1  UNL1       -0.2426
     15 C         140.4249  141.5761  162.8436 C.ar    1  UNL1        0.0971
     16 C         142.1232  142.7232  165.2299 C.3     1  UNL1        0.0633
     17 C         143.0319  141.5411  165.0653 C.ar    1  UNL1       -0.0015
     18 C         144.2141  141.6261  164.1459 C.ar    1  UNL1       -0.0011
     19 C         145.1228  140.4441  163.9813 C.ar    1  UNL1        0.0204
     20 C         144.8493  139.1771  164.7361 C.ar    1  UNL1        0.0988
     21 N         143.6671  139.0920  165.6554 N.ar    1  UNL1       -0.2442
     22 C         142.7584  140.2740  165.8200 C.ar    1  UNL1        0.0775
     23 C         141.5762  140.1889  166.7394 C.ar    1  UNL1        0.0190
     24 C         140.3010  139.5577  166.2648 C.ar    1  UNL1        0.0129
     25 C         139.1188  139.4726  167.1841 C.ar    1  UNL1        0.0586
     26 CL        137.8435  138.8413  166.7095 Cl      1  UNL1       -0.0822
     27 C         139.2118  140.0188  168.5780 C.ar    1  UNL1        0.0228
     28 C         140.4870  140.6500  169.0526 C.ar    1  UNL1        0.0586
     29 CL        140.5801  141.1962  170.4466 Cl      1  UNL1       -0.0822
     30 C         141.6692  140.7351  168.1332 C.ar    1  UNL1        0.0129
@<TRIPOS>BOND
     1     1     2    1
     2     2    16    1
     3    16    17    1
     4    17    18   ar
     5    18    19   ar
     6    19    20   ar
     7    20    21   ar
     8    21    22   ar
     9    22    23    1
    10    23    24   ar
    11    24    25   ar
    12    25    26    1
    13    25    27   ar
    14    27    28   ar
    15    28    29    1
    16    28    30   ar
    17     2     4    1
    18     4     5   ar
    19     5     6   ar
    20     6     7   ar
    21     7     8   ar
    22     8     9   ar
    23     2    10    1
    24    10    11   ar
    25    11    12   ar
    26    12    13   ar
    27    13    14   ar
    28    14    15   ar
    29    22    17   ar
    30    30    23   ar
    31     9     4   ar
    32    15    10   ar
    33     1     3    1
@<TRIPOS>MOLECULE
*****
 30 33 0 0 0
SMALL
GASTEIGER

@<TRIPOS>ATOM
      1 O         140.9244  142.7497  166.9464 O.3     1  UNL1       -0.3782
      2 C         141.6228  142.8805  165.6254 C.3     1  UNL1        0.1326
      3 H         141.5660  142.4932  167.6273 H       1  UNL1        0.2111
      4 C         140.3234  143.2538  164.9754 C.ar    1  UNL1        0.0251
      5 C         139.1850  142.2772  164.9594 C.ar    1  UNL1        0.0014
      6 C         137.8857  142.6505  164.3095 C.ar    1  UNL1        0.0204
      7 C         137.7248  144.0003  163.6756 C.ar    1  UNL1        0.0989
      8 N         138.8632  144.9770  163.6916 N.ar    1  UNL1       -0.2426
      9 C         140.1625  144.6037  164.3415 C.ar    1  UNL1        0.0971
     10 C         142.3211  143.0114  164.3044 C.ar    1  UNL1        0.0251
     11 C         143.4016  144.0363  164.1255 C.ar    1  UNL1        0.0014
     12 C         144.1000  144.1672  162.8044 C.ar    1  UNL1        0.0204
     13 C         143.7179  143.2731  161.6623 C.ar    1  UNL1        0.0989
     14 N         142.6374  142.2481  161.8411 N.ar    1  UNL1       -0.2426
     15 C         141.9390  142.1172  163.1622 C.ar    1  UNL1        0.0971
     16 C         142.9221  142.5072  166.2753 C.3     1  UNL1        0.0633
     17 C         142.9242  141.6837  167.5291 C.ar    1  UNL1       -0.0015
     18 C         143.2502  142.3234  168.8460 C.ar    1  UNL1       -0.0011
     19 C         143.2524  141.5000  170.0997 C.ar    1  UNL1        0.0204
     20 C         142.9286  140.0367  170.0365 C.ar    1  UNL1        0.0988
     21 N         142.6026  139.3970  168.7195 N.ar    1  UNL1       -0.2442
     22 C         142.6004  140.2204  167.4658 C.ar    1  UNL1        0.0775
     23 C         142.2745  139.5807  166.1488 C.ar    1  UNL1        0.0190
     24 C         143.3503  139.3896  165.1211 C.ar    1  UNL1        0.0129
     25 C         143.0243  138.7499  163.8041 C.ar    1  UNL1        0.0586
     26 CL        144.1002  138.5588  162.7764 Cl      1  UNL1       -0.0822
     27 C         141.6226  138.3012  163.5148 C.ar    1  UNL1        0.0228
     28 C         140.5468  138.4922  164.5425 C.ar    1  UNL1        0.0586
     29 CL        139.1450  138.0435  164.2532 Cl      1  UNL1       -0.0822
     30 C         140.8728  139.1320  165.8595 C.ar    1  UNL1        0.0129
@<TRIPOS>BOND
     1     1     2    1
     2     2    16    1
     3    16    17    1
     4    17    18   ar
     5    18    19   ar
     6    19    20   ar
     7    20    21   ar
     8    21    22   ar
     9    22    23    1
    10    23    24   ar
    11    24    25   ar
    12    25    26    1
    13    25    27   ar
    14    27    28   ar
    15    28    29    1
    16    28    30   ar
    17     2     4    1
    18     4     5   ar
    19     5     6   ar
    20     6     7   ar
    21     7     8   ar
    22     8     9   ar
    23     2    10    1
    24    10    11   ar
    25    11    12   ar
    26    12    13   ar
    27    13    14   ar
    28    14    15   ar
    29    22    17   ar
    30    30    23   ar
    31     9     4   ar
    32    15    10   ar
    33     1     3    1
@<TRIPOS>MOLECULE
*****
 30 33 0 0 0
SMALL
GASTEIGER

@<TRIPOS>ATOM
      1 O         143.0337  141.7275  166.4095 O.3     1  UNL1       -0.3782
      2 C         141.8645  140.8095  166.2091 C.3     1  UNL1        0.1326
      3 H         143.5892  141.7217  165.6144 H       1  UNL1        0.2111
      4 C         141.3671  141.1427  167.5846 C.ar    1  UNL1        0.0251
      5 C         140.8912  142.5312  167.8940 C.ar    1  UNL1        0.0014
      6 C         140.3939  142.8644  169.2694 C.ar    1  UNL1        0.0204
      7 C         140.3724  141.8092  170.3352 C.ar    1  UNL1        0.0989
      8 N         140.8483  140.4207  170.0257 N.ar    1  UNL1       -0.2426
      9 C         141.3456  140.0875  168.6504 C.ar    1  UNL1        0.0971
     10 C         140.6953  139.8915  166.0088 C.ar    1  UNL1        0.0251
     11 C         139.3214  140.3245  166.4270 C.ar    1  UNL1        0.0014
     12 C         138.1522  139.4064  166.2267 C.ar    1  UNL1        0.0204
     13 C         138.3569  138.0554  165.6081 C.ar    1  UNL1        0.0989
     14 N         139.7307  137.6223  165.1898 N.ar    1  UNL1       -0.2426
     15 C         140.8999  138.5403  165.3902 C.ar    1  UNL1        0.0971
     16 C         142.3618  140.4763  164.8338 C.3     1  UNL1        0.0633
     17 C         143.0770  141.5158  164.0226 C.ar    1  UNL1       -0.0015
     18 C         144.5463  141.3776  163.7543 C.ar    1  UNL1       -0.0011
     19 C         145.2616  142.4170  162.9431 C.ar    1  UNL1        0.0204
     20 C         144.5075  143.5945  162.4002 C.ar    1  UNL1        0.0988
     21 N         143.0382  143.7327  162.6685 N.ar    1  UNL1       -0.2442
     22 C         142.3229  142.6933  163.4797 C.ar    1  UNL1        0.0775
     23 C         140.8536  142.8314  163.7480 C.ar    1  UNL1        0.0190
     24 C         139.8790  141.9078  163.0793 C.ar    1  UNL1        0.0129
     25 C         138.4097  142.0459  163.3476 C.ar    1  UNL1        0.0586
     26 CL        137.4351  141.1223  162.6789 Cl      1  UNL1       -0.0822
     27 C         137.9149  143.1077  164.2846 C.ar    1  UNL1        0.0228
     28 C         138.8895  144.0313  164.9532 C.ar    1  UNL1        0.0586
     29 CL        138.3948  145.0931  165.8902 Cl      1  UNL1       -0.0822
     30 C         140.3588  143.8931  164.6849 C.ar    1  UNL1        0.0129
@<TRIPOS>BOND
     1     1     2    1
     2     2    16    1
     3    16    17    1
     4    17    18   ar
     5    18    19   ar
     6    19    20   ar
     7    20    21   ar
     8    21    22   ar
     9    22    23    1
    10    23    24   ar
    11    24    25   ar
    12    25    26    1
    13    25    27   ar
    14    27    28   ar
    15    28    29    1
    16    28    30   ar
    17     2     4    1
    18     4     5   ar
    19     5     6   ar
    20     6     7   ar
    21     7     8   ar
    22     8     9   ar
    23     2    10    1
    24    10    11   ar
    25    11    12   ar
    26    12    13   ar
    27    13    14   ar
    28    14    15   ar
    29    22    17   ar
    30    30    23   ar
    31     9     4   ar
    32    15    10   ar
    33     1     3    1
@<TRIPOS>MOLECULE
*****
 30 33 0 0 0
SMALL
GASTEIGER

@<TRIPOS>ATOM
      1 O         139.9622  143.8302  166.4080 O.3     1  UNL1       -0.3782
      2 C         139.8192  142.6909  165.4429 C.3     1  UNL1        0.1326
      3 H         140.1366  143.4816  167.2962 H       1  UNL1        0.2111
      4 C         139.5825  143.6655  164.3274 C.ar    1  UNL1        0.0251
      5 C         140.7050  144.5315  163.8374 C.ar    1  UNL1        0.0014
      6 C         140.4684  145.5060  162.7219 C.ar    1  UNL1        0.0204
      7 C         139.1094  145.6145  162.0965 C.ar    1  UNL1        0.0989
      8 N         137.9869  144.7486  162.5866 N.ar    1  UNL1       -0.2426
      9 C         138.2235  143.7740  163.7020 C.ar    1  UNL1        0.0971
     10 C         139.6762  141.5516  164.4778 C.ar    1  UNL1        0.0251
     11 C         140.5944  141.4500  163.2960 C.ar    1  UNL1        0.0014
     12 C         140.4513  140.3106  162.3309 C.ar    1  UNL1        0.0204
     13 C         139.3902  139.2729  162.5476 C.ar    1  UNL1        0.0989
     14 N         138.4720  139.3745  163.7293 N.ar    1  UNL1       -0.2426
     15 C         138.6150  140.5138  164.6945 C.ar    1  UNL1        0.0971
     16 C         140.0558  141.7163  166.5583 C.3     1  UNL1        0.0633
     17 C         140.9475  142.0908  167.7049 C.ar    1  UNL1       -0.0015
     18 C         140.3550  142.3818  169.0519 C.ar    1  UNL1       -0.0011
     19 C         141.2467  142.7562  170.1985 C.ar    1  UNL1        0.0204
     20 C         142.7309  142.8396  169.9981 C.ar    1  UNL1        0.0988
     21 N         143.3234  142.5487  168.6512 N.ar    1  UNL1       -0.2442
     22 C         142.4317  142.1742  167.5046 C.ar    1  UNL1        0.0775
     23 C         143.0242  141.8833  166.1576 C.ar    1  UNL1        0.0190
     24 C         143.4427  143.0119  165.2627 C.ar    1  UNL1        0.0129
     25 C         144.0352  142.7209  163.9157 C.ar    1  UNL1        0.0586
     26 CL        144.4537  143.8496  163.0208 Cl      1  UNL1       -0.0822
     27 C         144.2093  141.3013  163.4638 C.ar    1  UNL1        0.0228
     28 C         143.7908  140.1727  164.3587 C.ar    1  UNL1        0.0586
     29 CL        143.9649  138.7529  163.9068 Cl      1  UNL1       -0.0822
     30 C         143.1983  140.4636  165.7057 C.ar    1  UNL1        0.0129
@<TRIPOS>BOND
     1     1     2    1
     2     2    16    1
     3    16    17    1
     4    17    18   ar
     5    18    19   ar
     6    19    20   ar
     7    20    21   ar
     8    21    22   ar
     9    22    23    1
    10    23    24   ar
    11    24    25   ar
    12    25    26    1
    13    25    27   ar
    14    27    28   ar
    15    28    29    1
    16    28    30   ar
    17     2     4    1
    18     4     5   ar
    19     5     6   ar
    20     6     7   ar
    21     7     8   ar
    22     8     9   ar
    23     2    10    1
    24    10    11   ar
    25    11    12   ar
    26    12    13   ar
    27    13    14   ar
    28    14    15   ar
    29    22    17   ar
    30    30    23   ar
    31     9     4   ar
    32    15    10   ar
    33     1     3    1
@<TRIPOS>MOLECULE
*****
 30 33 0 0 0
SMALL
GASTEIGER

@<TRIPOS>ATOM
      1 O         140.7866  138.9615  165.8396 O.3     1  UNL1       -0.3782
      2 C         140.1234  139.7282  164.7340 C.3     1  UNL1        0.1326
      3 H         140.3540  139.1700  166.6824 H       1  UNL1        0.2111
      4 C         141.0680  139.1159  163.7426 C.ar    1  UNL1        0.0251
      5 C         142.5177  139.5012  163.7512 C.ar    1  UNL1        0.0014
      6 C         143.4623  138.8889  162.7599 C.ar    1  UNL1        0.0204
      7 C         142.9573  137.8914  161.7600 C.ar    1  UNL1        0.0989
      8 N         141.5077  137.5061  161.7514 N.ar    1  UNL1       -0.2426
      9 C         140.5630  138.1184  162.7427 C.ar    1  UNL1        0.0971
     10 C         139.4602  140.4949  163.6285 C.ar    1  UNL1        0.0251
     11 C         140.2937  141.1958  162.5970 C.ar    1  UNL1        0.0014
     12 C         139.6304  141.9626  161.4914 C.ar    1  UNL1        0.0204
     13 C         138.1337  142.0284  161.4174 C.ar    1  UNL1        0.0989
     14 N         137.3002  141.3276  162.4489 N.ar    1  UNL1       -0.2426
     15 C         137.9634  140.5608  163.5545 C.ar    1  UNL1        0.0971
     16 C         139.1788  140.3405  165.7253 C.3     1  UNL1        0.0633
     17 C         139.6712  140.7338  167.0866 C.ar    1  UNL1       -0.0015
     18 C         139.2931  139.9163  168.2860 C.ar    1  UNL1       -0.0011
     19 C         139.7855  140.3095  169.6472 C.ar    1  UNL1        0.0204
     20 C         140.6561  141.5202  169.8089 C.ar    1  UNL1        0.0988
     21 N         141.0342  142.3377  168.6095 N.ar    1  UNL1       -0.2442
     22 C         140.5418  141.9445  167.2483 C.ar    1  UNL1        0.0775
     23 C         140.9200  142.7620  166.0489 C.ar    1  UNL1        0.0190
     24 C         142.3251  142.7203  165.5255 C.ar    1  UNL1        0.0129
     25 C         142.7032  143.5378  164.3261 C.ar    1  UNL1        0.0586
     26 CL        144.1084  143.4961  163.8028 Cl      1  UNL1       -0.0822
     27 C         141.6763  144.3970  163.6500 C.ar    1  UNL1        0.0228
     28 C         140.2712  144.4387  164.1733 C.ar    1  UNL1        0.0586
     29 CL        139.2442  145.2979  163.4972 Cl      1  UNL1       -0.0822
     30 C         139.8930  143.6212  165.3727 C.ar    1  UNL1        0.0129
@<TRIPOS>BOND
     1     1     2    1
     2     2    16    1
     3    16    17    1
     4    17    18   ar
     5    18    19   ar
     6    19    20   ar
     7    20    21   ar
     8    21    22   ar
     9    22    23    1
    10    23    24   ar
    11    24    25   ar
    12    25    26    1
    13    25    27   ar
    14    27    28   ar
    15    28    29    1
    16    28    30   ar
    17     2     4    1
    18     4     5   ar
    19     5     6   ar
    20     6     7   ar
    21     7     8   ar
    22     8     9   ar
    23     2    10    1
    24    10    11   ar
    25    11    12   ar
    26    12    13   ar
    27    13    14   ar
    28    14    15   ar
    29    22    17   ar
    30    30    23   ar
    31     9     4   ar
    32    15    10   ar
    33     1     3    1
@<TRIPOS>MOLECULE
*****
 30 33 0 0 0
SMALL
GASTEIGER

@<TRIPOS>ATOM
      1 O         142.8175  144.4359  163.9494 O.3     1  UNL1       -0.3782
      2 C         141.6104  143.5483  163.8787 C.3     1  UNL1        0.1326
      3 H         143.3748  144.1648  164.6956 H       1  UNL1        0.2111
      4 C         141.1225  144.3074  162.6803 C.ar    1  UNL1        0.0251
      5 C         141.8038  144.1353  161.3551 C.ar    1  UNL1        0.0014
      6 C         141.3159  144.8942  160.1568 C.ar    1  UNL1        0.0204
      7 C         140.1468  145.8253  160.2838 C.ar    1  UNL1        0.0989
      8 N         139.4655  145.9974  161.6090 N.ar    1  UNL1       -0.2426
      9 C         139.9533  145.2384  162.8073 C.ar    1  UNL1        0.0971
     10 C         140.4033  142.6608  163.8079 C.ar    1  UNL1        0.0251
     11 C         140.3139  141.5990  162.7522 C.ar    1  UNL1        0.0014
     12 C         139.1066  140.7114  162.6814 C.ar    1  UNL1        0.0204
     13 C         137.9889  140.8857  163.6664 C.ar    1  UNL1        0.0989
     14 N         138.0783  141.9475  164.7222 N.ar    1  UNL1       -0.2426
     15 C         139.2854  142.8350  164.7929 C.ar    1  UNL1        0.0971
     16 C         142.0982  142.7893  165.0769 C.3     1  UNL1        0.0633
     17 C         143.0321  141.6288  164.9005 C.ar    1  UNL1       -0.0015
     18 C         144.1777  141.7277  163.9372 C.ar    1  UNL1       -0.0011
     19 C         145.1116  140.5673  163.7608 C.ar    1  UNL1        0.0204
     20 C         144.8999  139.3079  164.5475 C.ar    1  UNL1        0.0988
     21 N         143.7543  139.2089  165.5108 N.ar    1  UNL1       -0.2442
     22 C         142.8204  140.3694  165.6872 C.ar    1  UNL1        0.0775
     23 C         141.6748  140.2704  166.6505 C.ar    1  UNL1        0.0190
     24 C         141.8205  140.8004  168.0461 C.ar    1  UNL1        0.0129
     25 C         140.6749  140.7014  169.0093 C.ar    1  UNL1        0.0586
     26 CL        140.8206  141.2315  170.4051 Cl      1  UNL1       -0.0822
     27 C         139.3836  140.0725  168.5769 C.ar    1  UNL1        0.0228
     28 C         139.2379  139.5426  167.1813 C.ar    1  UNL1        0.0586
     29 CL        137.9466  138.9136  166.7488 Cl      1  UNL1       -0.0822
     30 C         140.3835  139.6415  166.2181 C.ar    1  UNL1        0.0129
@<TRIPOS>BOND
     1     1     2    1
     2     2    16    1
     3    16    17    1
     4    17    18   ar
     5    18    19   ar
     6    19    20   ar
     7    20    21   ar
     8    21    22   ar
     9    22    23    1
    10    23    24   ar
    11    24    25   ar
    12    25    26    1
    13    25    27   ar
    14    27    28   ar
    15    28    29    1
    16    28    30   ar
    17     2     4    1
    18     4     5   ar
    19     5     6   ar
    20     6     7   ar
    21     7     8   ar
    22     8     9   ar
    23     2    10    1
    24    10    11   ar
    25    11    12   ar
    26    12    13   ar
    27    13    14   ar
    28    14    15   ar
    29    22    17   ar
    30    30    23   ar
    31     9     4   ar
    32    15    10   ar
    33     1     3    1
