@<TRIPOS>MOLECULE
*****
 53 58 0 0 0
SMALL
GASTEIGER

@<TRIPOS>ATOM
      1 C         140.1882  138.5495  163.5353 C.ar    1  UNL1        0.1452
      2 C         139.1300  138.0010  164.4461 C.ar    1  UNL1        0.0375
      3 C         138.9620  138.5650  165.8258 C.ar    1  UNL1        0.0031
      4 C         139.8522  139.6775  166.2948 C.ar    1  UNL1        0.0002
      5 C         140.9104  140.2260  165.3841 C.ar    1  UNL1        0.0030
      6 C         141.0784  139.6619  164.0043 C.ar    1  UNL1        0.0346
      7 C         139.6843  140.2415  167.6745 C.ar    1  UNL1       -0.0000
      8 C         138.6717  139.6486  168.6091 C.ar    1  UNL1       -0.0000
      9 C         138.5037  140.2126  169.9888 C.ar    1  UNL1       -0.0001
     10 C         139.3483  141.3695  170.4340 C.ar    1  UNL1        0.0039
     11 C         140.3608  141.9624  169.4996 C.ar    1  UNL1        0.0714
     12 C         140.5288  141.3984  168.1198 C.ar    1  UNL1        0.0039
     13 C         141.2054  143.1193  169.9449 C.3     1  UNL1        0.4186
     14 F         142.0499  144.2762  170.3902 F       1  UNL1       -0.1659
     15 F         142.1638  142.1682  170.5982 F       1  UNL1       -0.1659
     16 F         140.2470  144.0704  169.2915 F       1  UNL1       -0.1659
     17 C         142.1365  140.2104  163.0936 C.ar    1  UNL1        0.0057
     18 C         143.4608  139.5153  162.9783 C.ar    1  UNL1        0.0208
     19 C         144.5189  140.0638  162.0675 C.ar    1  UNL1        0.0985
     20 N         144.2529  141.3074  161.2721 N.ar    1  UNL1       -0.2468
     21 C         142.9287  142.0025  161.3874 C.ar    1  UNL1        0.0749
     22 C         141.8705  141.4540  162.2982 C.ar    1  UNL1        0.0162
     23 C         142.6627  143.2461  160.5920 C.3     1  UNL1        0.1151
     24 N         142.6528  144.5833  161.2716 N.3     1  UNL1       -0.2924
     25 H         141.7253  144.9815  161.1245 H       1  UNL1        0.1236
     26 C         142.9374  144.6799  162.7412 C.3     1  UNL1        0.0688
     27 C         141.9456  145.3354  163.6557 C.3     1  UNL1        0.0172
     28 C         140.5782  144.7431  163.8275 C.3     1  UNL1        0.0041
     29 C         139.4801  145.1012  162.8704 C.3     1  UNL1        0.0172
     30 C         138.1128  144.5089  163.0421 C.3     1  UNL1        0.0686
     31 N         137.8435  143.5584  164.1709 N.3     1  UNL1       -0.2975
     32 C         138.9416  143.2003  165.1279 C.3     1  UNL1        0.0686
     33 C         140.3089  143.7926  164.9562 C.3     1  UNL1        0.0172
     34 H         137.5227  142.6859  163.7511 H       1  UNL1        0.1232
     35 O         140.3562  137.9854  162.1556 O.3     1  UNL1       -0.4528
     36 C         140.5646  138.8836  159.7266 C.ar    1  UNL1        0.1042
     37 C         139.9664  139.5934  158.5483 C.ar    1  UNL1        0.0335
     38 C         138.5617  140.1147  158.6206 C.ar    1  UNL1        0.1261
     39 C         137.7553  139.9262  159.8712 C.ar    1  UNL1        0.0234
     40 C         138.3534  139.2165  161.0495 C.ar    1  UNL1        0.0396
     41 C         139.7580  138.6952  160.9773 C.ar    1  UNL1        0.1549
     42 S         137.9636  140.8244  157.4423 S.O2    1  UNL1        0.0751
     43 O         138.1625  139.5976  156.6024 O.2     1  UNL1       -0.1499
     44 O         137.7647  142.0512  158.2821 O.2     1  UNL1       -0.1499
     45 N         137.3654  141.5342  156.2639 N.pl3   1  UNL1       -0.1925
     46 H         137.8909  142.2098  155.7775 H       1  UNL1        0.1758
     47 C         135.9666  141.2144  155.8266 C.ar    1  UNL1        0.1977
     48 N         134.9835  140.3606  156.5713 N.ar    1  UNL1       -0.1997
     49 C         133.7147  140.3108  155.7728 C.ar    1  UNL1        0.2082
     50 N         133.9136  141.1339  154.5346 N.ar    1  UNL1       -0.1840
     51 S         135.3054  141.6923  154.5679 S.2     1  UNL1        0.0508
     52 N         143.3738  137.8410  159.5821 N.1     1  UNL1       -0.1907
     53 C         141.9692  138.3623  159.6544 C.1     1  UNL1        0.1035
@<TRIPOS>BOND
     1    52    53    3
     2    53    36    1
     3    36    37   ar
     4    37    38   ar
     5    38    42    1
     6    42    43    2
     7    42    44    2
     8    42    45    1
     9    45    47    1
    10    47    48   ar
    11    48    49   ar
    12    49    50   ar
    13    50    51   ar
    14    38    39   ar
    15    39    40   ar
    16    40    41   ar
    17    41    35    1
    18    35     1    1
    19     1     2   ar
    20     2     3   ar
    21     3     4   ar
    22     4     7    1
    23     7     8   ar
    24     8     9   ar
    25     9    10   ar
    26    10    11   ar
    27    11    13    1
    28    13    14    1
    29    13    15    1
    30    13    16    1
    31    11    12   ar
    32     4     5   ar
    33     5     6   ar
    34     6    17    1
    35    17    18   ar
    36    18    19   ar
    37    19    20   ar
    38    20    21   ar
    39    21    23    1
    40    23    24    1
    41    24    26    1
    42    26    27    1
    43    27    28    1
    44    28    29    1
    45    29    30    1
    46    30    31    1
    47    31    32    1
    48    32    33    1
    49    21    22   ar
    50    41    36   ar
    51     6     1   ar
    52    22    17   ar
    53    51    47   ar
    54    12     7   ar
    55    33    28    1
    56    45    46    1
    57    24    25    1
    58    31    34    1
@<TRIPOS>MOLECULE
*****
 53 58 0 0 0
SMALL
GASTEIGER

@<TRIPOS>ATOM
      1 C         140.0401  138.5644  163.3278 C.ar    1  UNL1        0.1452
      2 C         139.0189  137.9921  164.2657 C.ar    1  UNL1        0.0375
      3 C         138.8960  138.5307  165.6602 C.ar    1  UNL1        0.0031
      4 C         139.7943  139.6418  166.1169 C.ar    1  UNL1        0.0002
      5 C         140.8155  140.2141  165.1791 C.ar    1  UNL1        0.0030
      6 C         140.9385  139.6755  163.7846 C.ar    1  UNL1        0.0346
      7 C         139.6714  140.1804  167.5114 C.ar    1  UNL1       -0.0000
      8 C         138.6582  139.6001  168.4531 C.ar    1  UNL1       -0.0000
      9 C         138.5353  140.1387  169.8476 C.ar    1  UNL1       -0.0001
     10 C         139.4256  141.2577  170.3005 C.ar    1  UNL1        0.0039
     11 C         140.4388  141.8381  169.3590 C.ar    1  UNL1        0.0714
     12 C         140.5618  141.2994  167.9644 C.ar    1  UNL1        0.0039
     13 C         141.3292  142.9571  169.8119 C.3     1  UNL1        0.4186
     14 F         142.2195  144.0760  170.2649 F       1  UNL1       -0.1659
     15 F         140.1387  143.8643  169.9106 F       1  UNL1       -0.1659
     16 F         142.5196  142.0498  169.7133 F       1  UNL1       -0.1659
     17 C         141.9597  140.2478  162.8468 C.ar    1  UNL1        0.0057
     18 C         143.2497  139.5205  162.6080 C.ar    1  UNL1        0.0208
     19 C         144.2709  140.0929  161.6702 C.ar    1  UNL1        0.0985
     20 N         144.0022  141.3926  160.9712 N.ar    1  UNL1       -0.2468
     21 C         142.7123  142.1199  161.2100 C.ar    1  UNL1        0.0749
     22 C         141.6910  141.5475  162.1478 C.ar    1  UNL1        0.0162
     23 C         142.4436  143.4196  160.5110 C.3     1  UNL1        0.1151
     24 N         142.6501  144.7171  161.2347 N.3     1  UNL1       -0.2924
     25 H         141.8102  145.2757  161.0829 H       1  UNL1        0.1236
     26 C         142.9102  144.7188  162.7119 C.3     1  UNL1        0.0688
     27 C         141.9230  145.3525  163.6466 C.3     1  UNL1        0.0172
     28 C         140.5520  144.7640  163.8012 C.3     1  UNL1        0.0041
     29 C         140.2635  143.8214  164.9319 C.3     1  UNL1        0.0172
     30 C         138.8925  143.2329  165.0864 C.3     1  UNL1        0.0686
     31 N         137.8099  143.5870  164.1103 N.3     1  UNL1       -0.2975
     32 C         138.0984  144.5295  162.9797 C.3     1  UNL1        0.0686
     33 C         139.4694  145.1180  162.8251 C.3     1  UNL1        0.0172
     34 H         137.0495  143.9994  164.6508 H       1  UNL1        0.1232
     35 O         140.1630  138.0258  161.9333 O.3     1  UNL1       -0.4528
     36 C         140.3289  138.9495  159.5106 C.ar    1  UNL1        0.1042
     37 C         139.7214  139.6979  158.3613 C.ar    1  UNL1        0.0335
     38 C         138.3407  140.2708  158.4853 C.ar    1  UNL1        0.1261
     39 C         137.5675  140.0954  159.7586 C.ar    1  UNL1        0.0234
     40 C         138.1749  139.3471  160.9079 C.ar    1  UNL1        0.0396
     41 C         139.5556  138.7741  160.7840 C.ar    1  UNL1        0.1549
     42 S         137.7332  141.0192  157.3360 S.O2    1  UNL1        0.0751
     43 O         137.6117  142.2419  158.1963 O.2     1  UNL1       -0.1499
     44 O         137.8548  139.7965  156.4756 O.2     1  UNL1       -0.1499
     45 N         137.1258  141.7675  156.1866 N.pl3   1  UNL1       -0.1925
     46 H         136.3219  141.4160  155.7401 H       1  UNL1        0.1758
     47 C         137.7432  143.0516  155.7176 C.ar    1  UNL1        0.1977
     48 N         137.0197  144.3451  155.4866 N.ar    1  UNL1       -0.1997
     49 C         138.0219  145.3605  155.0234 C.ar    1  UNL1        0.2082
     50 N         139.3649  144.6946  154.9681 N.ar    1  UNL1       -0.1840
     51 S         139.1926  143.2676  155.3972 S.2     1  UNL1        0.0508
     52 N         143.0902  137.8036  159.2627 N.1     1  UNL1       -0.1907
     53 C         141.7095  138.3765  159.3867 C.1     1  UNL1        0.1035
@<TRIPOS>BOND
     1    52    53    3
     2    53    36    1
     3    36    37   ar
     4    37    38   ar
     5    38    42    1
     6    42    43    2
     7    42    44    2
     8    42    45    1
     9    45    47    1
    10    47    48   ar
    11    48    49   ar
    12    49    50   ar
    13    50    51   ar
    14    38    39   ar
    15    39    40   ar
    16    40    41   ar
    17    41    35    1
    18    35     1    1
    19     1     2   ar
    20     2     3   ar
    21     3     4   ar
    22     4     7    1
    23     7     8   ar
    24     8     9   ar
    25     9    10   ar
    26    10    11   ar
    27    11    13    1
    28    13    14    1
    29    13    15    1
    30    13    16    1
    31    11    12   ar
    32     4     5   ar
    33     5     6   ar
    34     6    17    1
    35    17    18   ar
    36    18    19   ar
    37    19    20   ar
    38    20    21   ar
    39    21    23    1
    40    23    24    1
    41    24    26    1
    42    26    27    1
    43    27    28    1
    44    28    29    1
    45    29    30    1
    46    30    31    1
    47    31    32    1
    48    32    33    1
    49    21    22   ar
    50    41    36   ar
    51     6     1   ar
    52    22    17   ar
    53    51    47   ar
    54    12     7   ar
    55    33    28    1
    56    45    46    1
    57    24    25    1
    58    31    34    1
@<TRIPOS>MOLECULE
*****
 53 58 0 0 0
SMALL
GASTEIGER

@<TRIPOS>ATOM
      1 C         142.1251  139.1764  162.9666 C.ar    1  UNL1        0.1452
      2 C         141.7814  138.1467  164.0019 C.ar    1  UNL1        0.0375
      3 C         141.7875  138.5143  165.4562 C.ar    1  UNL1        0.0031
      4 C         142.1373  139.9114  165.8752 C.ar    1  UNL1        0.0002
      5 C         142.4810  140.9411  164.8400 C.ar    1  UNL1        0.0030
      6 C         142.4749  140.5736  163.3857 C.ar    1  UNL1        0.0346
      7 C         142.1434  140.2789  167.3294 C.ar    1  UNL1       -0.0000
      8 C         142.6068  139.2845  168.3524 C.ar    1  UNL1       -0.0000
      9 C         142.6129  139.6520  169.8067 C.ar    1  UNL1       -0.0001
     10 C         142.1557  141.0139  170.2380 C.ar    1  UNL1        0.0039
     11 C         141.6923  142.0084  169.2151 C.ar    1  UNL1        0.0714
     12 C         141.6862  141.6409  167.7608 C.ar    1  UNL1        0.0039
     13 C         141.2351  143.3703  169.6464 C.3     1  UNL1        0.4186
     14 F         140.7779  144.7322  170.0778 F       1  UNL1       -0.1659
     15 F         140.0776  143.2826  168.6965 F       1  UNL1       -0.1659
     16 F         142.3926  143.4580  170.5964 F       1  UNL1       -0.1659
     17 C         142.8186  141.6032  162.3505 C.ar    1  UNL1        0.0057
     18 C         144.1674  141.5859  161.6943 C.ar    1  UNL1        0.0208
     19 C         144.5111  142.6155  160.6591 C.ar    1  UNL1        0.0985
     20 N         143.5061  143.6625  160.2801 N.ar    1  UNL1       -0.2468
     21 C         142.1573  143.6799  160.9362 C.ar    1  UNL1        0.0749
     22 C         141.8136  142.6502  161.9715 C.ar    1  UNL1        0.0162
     23 C         141.1523  144.7269  160.5572 C.3     1  UNL1        0.1151
     24 N         139.7383  144.6211  161.0463 N.3     1  UNL1       -0.2924
     25 H         139.5908  143.6475  161.3123 H       1  UNL1        0.1236
     26 C         139.2797  145.4601  162.2021 C.3     1  UNL1        0.0688
     27 C         139.3042  144.8985  163.5927 C.3     1  UNL1        0.0172
     28 C         138.7806  143.5172  163.8532 C.3     1  UNL1        0.0041
     29 C         139.3224  142.7132  164.9978 C.3     1  UNL1        0.0172
     30 C         138.7988  141.3319  165.2582 C.3     1  UNL1        0.0686
     31 N         137.7334  140.7545  164.3740 N.3     1  UNL1       -0.2975
     32 C         137.1917  141.5585  163.2294 C.3     1  UNL1        0.0686
     33 C         137.7153  142.9399  162.9690 C.3     1  UNL1        0.0172
     34 H         136.9416  140.5287  164.9760 H       1  UNL1        0.1232
     35 O         142.1190  138.8089  161.5124 O.3     1  UNL1       -0.4528
     36 C         141.4724  139.8937  159.2419 C.ar    1  UNL1        0.1042
     37 C         140.4329  140.4702  158.3270 C.ar    1  UNL1        0.0335
     38 C         139.0006  140.5385  158.7676 C.ar    1  UNL1        0.1261
     39 C         138.6079  140.0303  160.1231 C.ar    1  UNL1        0.0234
     40 C         139.6474  139.4537  161.0380 C.ar    1  UNL1        0.0396
     41 C         141.0796  139.3854  160.5975 C.ar    1  UNL1        0.1549
     42 S         137.9612  141.1150  157.8526 S.O2    1  UNL1        0.0751
     43 O         138.0555  142.4276  158.5726 O.2     1  UNL1       -0.1499
     44 O         137.8668  139.8025  157.1327 O.2     1  UNL1       -0.1499
     45 N         136.9217  141.6916  156.9377 N.pl3   1  UNL1       -0.1925
     46 H         135.9806  141.4165  157.0266 H       1  UNL1        0.1758
     47 C         137.3162  142.6872  155.8873 C.ar    1  UNL1        0.1977
     48 N         136.6114  143.9764  155.5855 N.ar    1  UNL1       -0.1997
     49 C         137.3443  144.6544  154.4661 C.ar    1  UNL1        0.2082
     50 N         138.5022  143.7841  154.0760 N.ar    1  UNL1       -0.1840
     51 S         138.4847  142.5683  154.9544 S.2     1  UNL1        0.0508
     52 N         144.3367  139.7571  158.3608 N.1     1  UNL1       -0.1907
     53 C         142.9045  139.8254  158.8014 C.1     1  UNL1        0.1035
@<TRIPOS>BOND
     1    52    53    3
     2    53    36    1
     3    36    37   ar
     4    37    38   ar
     5    38    42    1
     6    42    43    2
     7    42    44    2
     8    42    45    1
     9    45    47    1
    10    47    48   ar
    11    48    49   ar
    12    49    50   ar
    13    50    51   ar
    14    38    39   ar
    15    39    40   ar
    16    40    41   ar
    17    41    35    1
    18    35     1    1
    19     1     2   ar
    20     2     3   ar
    21     3     4   ar
    22     4     7    1
    23     7     8   ar
    24     8     9   ar
    25     9    10   ar
    26    10    11   ar
    27    11    13    1
    28    13    14    1
    29    13    15    1
    30    13    16    1
    31    11    12   ar
    32     4     5   ar
    33     5     6   ar
    34     6    17    1
    35    17    18   ar
    36    18    19   ar
    37    19    20   ar
    38    20    21   ar
    39    21    23    1
    40    23    24    1
    41    24    26    1
    42    26    27    1
    43    27    28    1
    44    28    29    1
    45    29    30    1
    46    30    31    1
    47    31    32    1
    48    32    33    1
    49    21    22   ar
    50    41    36   ar
    51     6     1   ar
    52    22    17   ar
    53    51    47   ar
    54    12     7   ar
    55    33    28    1
    56    45    46    1
    57    24    25    1
    58    31    34    1
@<TRIPOS>MOLECULE
*****
 53 58 0 0 0
SMALL
GASTEIGER

@<TRIPOS>ATOM
      1 C         138.8658  140.2626  164.3419 C.ar    1  UNL1        0.1452
      2 C         138.9242  139.1034  165.2922 C.ar    1  UNL1        0.0375
      3 C         139.4297  139.3043  166.6900 C.ar    1  UNL1        0.0031
      4 C         139.8770  140.6643  167.1376 C.ar    1  UNL1        0.0002
      5 C         139.8186  141.8234  166.1874 C.ar    1  UNL1        0.0030
      6 C         139.3130  141.6226  164.7895 C.ar    1  UNL1        0.0346
      7 C         140.3825  140.8651  168.5355 C.ar    1  UNL1       -0.0000
      8 C         139.6563  140.2448  169.6921 C.ar    1  UNL1       -0.0000
      9 C         140.1619  140.4456  171.0900 C.ar    1  UNL1       -0.0001
     10 C         141.3937  141.2668  171.3313 C.ar    1  UNL1        0.0039
     11 C         142.1199  141.8872  170.1747 C.ar    1  UNL1        0.0714
     12 C         141.6144  141.6864  168.7768 C.ar    1  UNL1        0.0039
     13 C         143.3518  142.7084  170.4160 C.3     1  UNL1        0.4186
     14 F         144.5836  143.5296  170.6573 F       1  UNL1       -0.1659
     15 F         144.2040  141.4926  170.2028 F       1  UNL1       -0.1659
     16 F         142.4995  143.9242  170.6292 F       1  UNL1       -0.1659
     17 C         139.2547  142.7818  163.8393 C.ar    1  UNL1        0.0057
     18 C         137.9731  143.5403  163.6594 C.ar    1  UNL1        0.0208
     19 C         137.9148  144.6995  162.7092 C.ar    1  UNL1        0.0985
     20 N         139.1380  145.1001  161.9389 N.ar    1  UNL1       -0.2468
     21 C         140.4195  144.3416  162.1188 C.ar    1  UNL1        0.0749
     22 C         140.4778  143.1824  163.0690 C.ar    1  UNL1        0.0162
     23 C         141.6426  144.7423  161.3485 C.3     1  UNL1        0.1151
     24 N         142.9828  144.7538  162.0220 N.3     1  UNL1       -0.2924
     25 H         143.5764  145.3866  161.4859 H       1  UNL1        0.1236
     26 C         143.0963  145.1672  163.4594 C.3     1  UNL1        0.0688
     27 C         144.1169  144.5198  164.3477 C.3     1  UNL1        0.0172
     28 C         144.1857  143.0246  164.4454 C.3     1  UNL1        0.0041
     29 C         145.1985  142.2661  163.6398 C.3     1  UNL1        0.0172
     30 C         145.2673  140.7709  163.7374 C.3     1  UNL1        0.0686
     31 N         144.3233  140.0341  164.6407 N.3     1  UNL1       -0.2975
     32 C         143.3105  140.7925  165.4463 C.3     1  UNL1        0.0686
     33 C         143.2417  142.2877  165.3487 C.3     1  UNL1        0.0172
     34 H         144.8968  139.5130  165.3041 H       1  UNL1        0.1232
     35 O         138.3602  140.0618  162.9440 O.3     1  UNL1       -0.4528
     36 C         139.3543  140.2924  160.5548 C.ar    1  UNL1        0.1042
     37 C         140.2853  139.8084  159.4828 C.ar    1  UNL1        0.0335
     38 C         141.1530  138.6096  159.7282 C.ar    1  UNL1        0.1261
     39 C         141.0897  137.8950  161.0454 C.ar    1  UNL1        0.0234
     40 C         140.1588  138.3790  162.1174 C.ar    1  UNL1        0.0396
     41 C         139.2911  139.5777  161.8721 C.ar    1  UNL1        0.1549
     42 S         142.0839  138.1255  158.6562 S.O2    1  UNL1        0.0751
     43 O         141.3214  138.9181  157.6362 O.2     1  UNL1       -0.1499
     44 O         142.8463  137.3330  159.6762 O.2     1  UNL1       -0.1499
     45 N         143.0148  137.6415  157.5842 N.pl3   1  UNL1       -0.1925
     46 H         143.8364  138.1447  157.3817 H       1  UNL1        0.1758
     47 C         142.6939  136.3907  156.8209 C.ar    1  UNL1        0.1977
     48 N         141.6119  136.2379  155.7934 N.ar    1  UNL1       -0.1997
     49 C         141.6480  134.8259  155.2886 C.ar    1  UNL1        0.2082
     50 N         142.7524  134.1059  156.0042 N.ar    1  UNL1       -0.1840
     51 S         143.3988  135.0730  156.9512 S.2     1  UNL1        0.0508
     52 N         137.6190  142.6898  160.0641 N.1     1  UNL1       -0.1907
     53 C         138.4867  141.4911  160.3094 C.1     1  UNL1        0.1035
@<TRIPOS>BOND
     1    52    53    3
     2    53    36    1
     3    36    37   ar
     4    37    38   ar
     5    38    42    1
     6    42    43    2
     7    42    44    2
     8    42    45    1
     9    45    47    1
    10    47    48   ar
    11    48    49   ar
    12    49    50   ar
    13    50    51   ar
    14    38    39   ar
    15    39    40   ar
    16    40    41   ar
    17    41    35    1
    18    35     1    1
    19     1     2   ar
    20     2     3   ar
    21     3     4   ar
    22     4     7    1
    23     7     8   ar
    24     8     9   ar
    25     9    10   ar
    26    10    11   ar
    27    11    13    1
    28    13    14    1
    29    13    15    1
    30    13    16    1
    31    11    12   ar
    32     4     5   ar
    33     5     6   ar
    34     6    17    1
    35    17    18   ar
    36    18    19   ar
    37    19    20   ar
    38    20    21   ar
    39    21    23    1
    40    23    24    1
    41    24    26    1
    42    26    27    1
    43    27    28    1
    44    28    29    1
    45    29    30    1
    46    30    31    1
    47    31    32    1
    48    32    33    1
    49    21    22   ar
    50    41    36   ar
    51     6     1   ar
    52    22    17   ar
    53    51    47   ar
    54    12     7   ar
    55    33    28    1
    56    45    46    1
    57    24    25    1
    58    31    34    1
@<TRIPOS>MOLECULE
*****
 53 58 0 0 0
SMALL
GASTEIGER

@<TRIPOS>ATOM
      1 C         140.4472  144.0037  163.2833 C.ar    1  UNL1        0.1452
      2 C         139.5193  144.5539  164.3257 C.ar    1  UNL1        0.0375
      3 C         139.6025  144.0602  165.7396 C.ar    1  UNL1        0.0031
      4 C         140.6135  143.0163  166.1113 C.ar    1  UNL1        0.0002
      5 C         141.5413  142.4660  165.0690 C.ar    1  UNL1        0.0030
      6 C         141.4581  142.9598  163.6550 C.ar    1  UNL1        0.0346
      7 C         140.6966  142.5225  167.5252 C.ar    1  UNL1       -0.0000
      8 C         140.1693  143.3674  168.6469 C.ar    1  UNL1       -0.0000
      9 C         140.2525  142.8737  170.0609 C.ar    1  UNL1       -0.0001
     10 C         140.8629  141.5351  170.3532 C.ar    1  UNL1        0.0039
     11 C         141.3903  140.6902  169.2316 C.ar    1  UNL1        0.0714
     12 C         141.3071  141.1839  167.8175 C.ar    1  UNL1        0.0039
     13 C         142.0007  139.3516  169.5239 C.3     1  UNL1        0.4186
     14 F         142.6112  138.0130  169.8162 F       1  UNL1       -0.1659
     15 F         141.0257  139.1520  170.6462 F       1  UNL1       -0.1659
     16 F         142.9757  139.5512  168.4016 F       1  UNL1       -0.1659
     17 C         142.3859  142.4095  162.6127 C.ar    1  UNL1        0.0057
     18 C         143.5241  143.2447  162.1056 C.ar    1  UNL1        0.0208
     19 C         144.4519  142.6945  161.0633 C.ar    1  UNL1        0.0985
     20 N         144.2416  141.3091  160.5281 N.ar    1  UNL1       -0.2468
     21 C         143.1034  140.4739  161.0351 C.ar    1  UNL1        0.0749
     22 C         142.1756  141.0242  162.0774 C.ar    1  UNL1        0.0162
     23 C         142.8931  139.0886  160.4998 C.3     1  UNL1        0.1151
     24 N         141.5078  138.5197  160.4149 N.3     1  UNL1       -0.2924
     25 H         141.5446  137.7544  159.7415 H       1  UNL1        0.1236
     26 C         140.8413  137.9814  161.6461 C.3     1  UNL1        0.0688
     27 C         139.4129  138.3325  161.9401 C.3     1  UNL1        0.0172
     28 C         139.0022  138.6971  163.3359 C.3     1  UNL1        0.0041
     29 C         138.7069  140.1266  163.6817 C.3     1  UNL1        0.0172
     30 C         138.2962  140.4911  165.0775 C.3     1  UNL1        0.0686
     31 N         138.1807  139.4262  166.1276 N.3     1  UNL1       -0.2975
     32 C         138.4759  137.9968  165.7819 C.3     1  UNL1        0.0686
     33 C         138.8867  137.6322  164.3860 C.3     1  UNL1        0.0172
     34 H         137.2205  139.4539  166.4707 H       1  UNL1        0.1232
     35 O         140.3640  144.4974  161.8694 O.3     1  UNL1       -0.4528
     36 C         140.0877  143.8288  159.3741 C.ar    1  UNL1        0.1042
     37 C         139.4384  142.9811  158.3206 C.ar    1  UNL1        0.0335
     38 C         138.4161  141.9543  158.7090 C.ar    1  UNL1        0.1261
     39 C         138.0432  141.7753  160.1508 C.ar    1  UNL1        0.0234
     40 C         138.6924  142.6231  161.2042 C.ar    1  UNL1        0.0396
     41 C         139.7147  143.6497  160.8159 C.ar    1  UNL1        0.1549
     42 S         137.7668  141.1066  157.6555 S.O2    1  UNL1        0.0751
     43 O         137.1987  140.2171  158.7214 O.2     1  UNL1       -0.1499
     44 O         138.3349  141.9961  156.5896 O.2     1  UNL1       -0.1499
     45 N         137.1175  140.2589  156.6020 N.pl3   1  UNL1       -0.1925
     46 H         137.6276  139.5382  156.1667 H       1  UNL1        0.1758
     47 C         135.6909  140.5094  156.2118 C.ar    1  UNL1        0.1977
     48 N         134.4819  139.8819  156.8399 N.ar    1  UNL1       -0.1997
     49 C         133.2667  140.4160  156.1413 C.ar    1  UNL1        0.2082
     50 N         133.7247  141.3737  155.0815 N.ar    1  UNL1       -0.1840
     51 S         135.2230  141.4313  155.1251 S.2     1  UNL1        0.0508
     52 N         142.1323  145.8821  158.5974 N.1     1  UNL1       -0.1907
     53 C         141.1100  144.8554  158.9857 C.1     1  UNL1        0.1035
@<TRIPOS>BOND
     1    52    53    3
     2    53    36    1
     3    36    37   ar
     4    37    38   ar
     5    38    42    1
     6    42    43    2
     7    42    44    2
     8    42    45    1
     9    45    47    1
    10    47    48   ar
    11    48    49   ar
    12    49    50   ar
    13    50    51   ar
    14    38    39   ar
    15    39    40   ar
    16    40    41   ar
    17    41    35    1
    18    35     1    1
    19     1     2   ar
    20     2     3   ar
    21     3     4   ar
    22     4     7    1
    23     7     8   ar
    24     8     9   ar
    25     9    10   ar
    26    10    11   ar
    27    11    13    1
    28    13    14    1
    29    13    15    1
    30    13    16    1
    31    11    12   ar
    32     4     5   ar
    33     5     6   ar
    34     6    17    1
    35    17    18   ar
    36    18    19   ar
    37    19    20   ar
    38    20    21   ar
    39    21    23    1
    40    23    24    1
    41    24    26    1
    42    26    27    1
    43    27    28    1
    44    28    29    1
    45    29    30    1
    46    30    31    1
    47    31    32    1
    48    32    33    1
    49    21    22   ar
    50    41    36   ar
    51     6     1   ar
    52    22    17   ar
    53    51    47   ar
    54    12     7   ar
    55    33    28    1
    56    45    46    1
    57    24    25    1
    58    31    34    1
@<TRIPOS>MOLECULE
*****
 53 58 0 0 0
SMALL
GASTEIGER

@<TRIPOS>ATOM
      1 C         138.9364  140.8411  163.3780 C.ar    1  UNL1        0.1452
      2 C         138.2431  139.9124  164.3304 C.ar    1  UNL1        0.0375
      3 C         138.5718  139.9558  165.7933 C.ar    1  UNL1        0.0031
      4 C         139.5939  140.9277  166.3038 C.ar    1  UNL1        0.0002
      5 C         140.2872  141.8564  165.3515 C.ar    1  UNL1        0.0030
      6 C         139.9585  141.8130  163.8886 C.ar    1  UNL1        0.0346
      7 C         139.9226  140.9711  167.7667 C.ar    1  UNL1       -0.0000
      8 C         139.1580  140.1156  168.7329 C.ar    1  UNL1       -0.0000
      9 C         139.4867  140.1590  170.1958 C.ar    1  UNL1       -0.0001
     10 C         140.5801  141.0578  170.6925 C.ar    1  UNL1        0.0039
     11 C         141.3447  141.9132  169.7263 C.ar    1  UNL1        0.0714
     12 C         141.0160  141.8699  168.2634 C.ar    1  UNL1        0.0039
     13 C         142.4381  142.8120  170.2230 C.3     1  UNL1        0.4186
     14 F         143.5315  143.7108  170.7197 F       1  UNL1       -0.1659
     15 F         143.3626  141.6346  170.3185 F       1  UNL1       -0.1659
     16 F         141.5136  143.9894  170.1276 F       1  UNL1       -0.1659
     17 C         140.6518  142.7417  162.9363 C.ar    1  UNL1        0.0057
     18 C         139.9458  143.9668  162.4355 C.ar    1  UNL1        0.0208
     19 C         140.6391  144.8954  161.4832 C.ar    1  UNL1        0.0985
     20 N         142.0385  144.5990  161.0316 N.ar    1  UNL1       -0.2468
     21 C         142.7445  143.3739  161.5323 C.ar    1  UNL1        0.0749
     22 C         142.0512  142.4452  162.4847 C.ar    1  UNL1        0.0162
     23 C         144.1438  143.0775  161.0807 C.3     1  UNL1        0.1151
     24 N         145.2448  142.9415  162.0903 N.3     1  UNL1       -0.2924
     25 H         145.0301  143.5885  162.8490 H       1  UNL1        0.1236
     26 C         145.5225  141.6098  162.7224 C.3     1  UNL1        0.0688
     27 C         145.1085  141.3519  164.1408 C.3     1  UNL1        0.0172
     28 C         144.1291  140.2585  164.4492 C.3     1  UNL1        0.0041
     29 C         143.5674  140.1232  165.8336 C.3     1  UNL1        0.0172
     30 C         142.5879  139.0298  166.1420 C.3     1  UNL1        0.0686
     31 N         142.1702  138.0717  165.0661 N.3     1  UNL1       -0.2975
     32 C         142.7318  138.2070  163.6818 C.3     1  UNL1        0.0686
     33 C         143.7113  139.3004  163.3734 C.3     1  UNL1        0.0172
     34 H         141.1566  138.1479  164.9813 H       1  UNL1        0.1232
     35 O         138.6077  140.7977  161.9152 O.3     1  UNL1       -0.4528
     36 C         139.8674  140.8335  159.6432 C.ar    1  UNL1        0.1042
     37 C         140.8239  140.1982  158.6780 C.ar    1  UNL1        0.0335
     38 C         141.4771  138.8918  159.0197 C.ar    1  UNL1        0.1261
     39 C         141.1738  138.2207  160.3264 C.ar    1  UNL1        0.0234
     40 C         140.2173  138.8561  161.2916 C.ar    1  UNL1        0.0396
     41 C         139.5642  140.1624  160.9500 C.ar    1  UNL1        0.1549
     42 S         142.4336  138.2565  158.0545 S.O2    1  UNL1        0.0751
     43 O         142.8876  137.3110  159.1268 O.2     1  UNL1       -0.1499
     44 O         141.9795  139.2020  156.9822 O.2     1  UNL1       -0.1499
     45 N         143.3900  137.6212  157.0893 N.pl3   1  UNL1       -0.1925
     46 H         144.2546  138.0514  156.8979 H       1  UNL1        0.1758
     47 C         143.0292  136.3303  156.4158 C.ar    1  UNL1        0.1977
     48 N         143.9804  135.2282  156.0547 N.ar    1  UNL1       -0.1997
     49 C         143.1928  134.1318  155.4008 C.ar    1  UNL1        0.2082
     50 N         141.7547  134.5563  155.3578 N.ar    1  UNL1       -0.1840
     51 S         141.6536  135.9150  155.9851 S.2     1  UNL1        0.0508
     52 N         138.5611  143.4463  158.9600 N.1     1  UNL1       -0.1907
     53 C         139.2143  142.1399  159.3016 C.1     1  UNL1        0.1035
@<TRIPOS>BOND
     1    52    53    3
     2    53    36    1
     3    36    37   ar
     4    37    38   ar
     5    38    42    1
     6    42    43    2
     7    42    44    2
     8    42    45    1
     9    45    47    1
    10    47    48   ar
    11    48    49   ar
    12    49    50   ar
    13    50    51   ar
    14    38    39   ar
    15    39    40   ar
    16    40    41   ar
    17    41    35    1
    18    35     1    1
    19     1     2   ar
    20     2     3   ar
    21     3     4   ar
    22     4     7    1
    23     7     8   ar
    24     8     9   ar
    25     9    10   ar
    26    10    11   ar
    27    11    13    1
    28    13    14    1
    29    13    15    1
    30    13    16    1
    31    11    12   ar
    32     4     5   ar
    33     5     6   ar
    34     6    17    1
    35    17    18   ar
    36    18    19   ar
    37    19    20   ar
    38    20    21   ar
    39    21    23    1
    40    23    24    1
    41    24    26    1
    42    26    27    1
    43    27    28    1
    44    28    29    1
    45    29    30    1
    46    30    31    1
    47    31    32    1
    48    32    33    1
    49    21    22   ar
    50    41    36   ar
    51     6     1   ar
    52    22    17   ar
    53    51    47   ar
    54    12     7   ar
    55    33    28    1
    56    45    46    1
    57    24    25    1
    58    31    34    1
@<TRIPOS>MOLECULE
*****
 53 58 0 0 0
SMALL
GASTEIGER

@<TRIPOS>ATOM
      1 C         140.8203  143.8948  162.5123 C.ar    1  UNL1        0.1452
      2 C         140.0684  144.5351  163.6414 C.ar    1  UNL1        0.0375
      3 C         140.2257  144.0129  165.0387 C.ar    1  UNL1        0.0031
      4 C         141.1348  142.8503  165.3070 C.ar    1  UNL1        0.0002
      5 C         141.8867  142.2100  164.1780 C.ar    1  UNL1        0.0030
      6 C         141.7294  142.7323  162.7806 C.ar    1  UNL1        0.0346
      7 C         141.2921  142.3280  166.7043 C.ar    1  UNL1       -0.0000
      8 C         142.2757  141.2319  166.9890 C.ar    1  UNL1       -0.0000
      9 C         142.4330  140.7096  168.3863 C.ar    1  UNL1       -0.0001
     10 C         141.6068  141.2834  169.4989 C.ar    1  UNL1        0.0039
     11 C         140.6232  142.3796  169.2143 C.ar    1  UNL1        0.0714
     12 C         140.4659  142.9019  167.8169 C.ar    1  UNL1        0.0039
     13 C         139.7969  142.9534  170.3269 C.3     1  UNL1        0.4186
     14 F         138.9706  143.5273  171.4395 F       1  UNL1       -0.1659
     15 F         139.0316  141.6668  170.4221 F       1  UNL1       -0.1659
     16 F         140.5622  144.2400  170.2316 F       1  UNL1       -0.1659
     17 C         142.4813  142.0920  161.6516 C.ar    1  UNL1        0.0057
     18 C         143.3485  142.9286  160.7582 C.ar    1  UNL1        0.0208
     19 C         144.1003  142.2884  159.6292 C.ar    1  UNL1        0.0985
     20 N         143.9850  140.8115  159.3935 N.ar    1  UNL1       -0.2468
     21 C         143.1179  139.9749  160.2868 C.ar    1  UNL1        0.0749
     22 C         142.3659  140.6152  161.4159 C.ar    1  UNL1        0.0162
     23 C         143.0025  138.4980  160.0511 C.3     1  UNL1        0.1151
     24 N         142.6844  137.5789  161.1930 N.3     1  UNL1       -0.2924
     25 H         143.3719  137.7668  161.9226 H       1  UNL1        0.1236
     26 C         141.3348  137.6327  161.8455 C.3     1  UNL1        0.0688
     27 C         141.2266  137.8059  163.3315 C.3     1  UNL1        0.0172
     28 C         140.1667  138.6974  163.9075 C.3     1  UNL1        0.0041
     29 C         139.3182  139.5373  162.9993 C.3     1  UNL1        0.0172
     30 C         138.2583  140.4288  163.5754 C.3     1  UNL1        0.0686
     31 N         138.0470  140.4805  165.0596 N.3     1  UNL1       -0.2975
     32 C         138.8955  139.6407  165.9676 C.3     1  UNL1        0.0686
     33 C         139.9554  138.7492  165.3916 C.3     1  UNL1        0.0172
     34 H         137.0781  140.2103  165.2286 H       1  UNL1        0.1232
     35 O         140.6630  144.4171  161.1150 O.3     1  UNL1       -0.4528
     36 C         140.1153  143.8391  158.6420 C.ar    1  UNL1        0.1042
     37 C         139.3219  143.0602  157.6350 C.ar    1  UNL1        0.0335
     38 C         138.2829  142.0805  158.0942 C.ar    1  UNL1        0.1261
     39 C         138.0372  141.8798  159.5603 C.ar    1  UNL1        0.0234
     40 C         138.8306  142.6586  160.5672 C.ar    1  UNL1        0.0396
     41 C         139.8696  143.6383  160.1081 C.ar    1  UNL1        0.1549
     42 S         137.4895  141.3017  157.0873 S.O2    1  UNL1        0.0751
     43 O         137.0004  142.5836  156.4811 O.2     1  UNL1       -0.1499
     44 O         137.9786  140.0198  157.6934 O.2     1  UNL1       -0.1499
     45 N         136.6961  140.5228  156.0803 N.pl3   1  UNL1       -0.1925
     46 H         137.1574  140.0415  155.3559 H       1  UNL1        0.1758
     47 C         135.1999  140.4774  156.1771 C.ar    1  UNL1        0.1977
     48 N         134.4057  139.7586  157.2272 N.ar    1  UNL1       -0.1997
     49 C         132.9502  139.9797  156.9399 C.ar    1  UNL1        0.2082
     50 N         132.8448  140.8351  155.7122 N.ar    1  UNL1       -0.1840
     51 S         134.2352  141.1427  155.2408 S.2     1  UNL1        0.0508
     52 N         142.1932  145.7983  157.7238 N.1     1  UNL1       -0.1907
     53 C         141.1543  144.8187  158.1829 C.1     1  UNL1        0.1035
@<TRIPOS>BOND
     1    52    53    3
     2    53    36    1
     3    36    37   ar
     4    37    38   ar
     5    38    42    1
     6    42    43    2
     7    42    44    2
     8    42    45    1
     9    45    47    1
    10    47    48   ar
    11    48    49   ar
    12    49    50   ar
    13    50    51   ar
    14    38    39   ar
    15    39    40   ar
    16    40    41   ar
    17    41    35    1
    18    35     1    1
    19     1     2   ar
    20     2     3   ar
    21     3     4   ar
    22     4     7    1
    23     7     8   ar
    24     8     9   ar
    25     9    10   ar
    26    10    11   ar
    27    11    13    1
    28    13    14    1
    29    13    15    1
    30    13    16    1
    31    11    12   ar
    32     4     5   ar
    33     5     6   ar
    34     6    17    1
    35    17    18   ar
    36    18    19   ar
    37    19    20   ar
    38    20    21   ar
    39    21    23    1
    40    23    24    1
    41    24    26    1
    42    26    27    1
    43    27    28    1
    44    28    29    1
    45    29    30    1
    46    30    31    1
    47    31    32    1
    48    32    33    1
    49    21    22   ar
    50    41    36   ar
    51     6     1   ar
    52    22    17   ar
    53    51    47   ar
    54    12     7   ar
    55    33    28    1
    56    45    46    1
    57    24    25    1
    58    31    34    1
@<TRIPOS>MOLECULE
*****
 53 58 0 0 0
SMALL
GASTEIGER

@<TRIPOS>ATOM
      1 C         143.5981  142.1442  163.2218 C.ar    1  UNL1        0.1452
      2 C         144.1248  143.2012  164.1469 C.ar    1  UNL1        0.0375
      3 C         143.7651  143.1706  165.6028 C.ar    1  UNL1        0.0031
      4 C         142.8789  142.0831  166.1337 C.ar    1  UNL1        0.0002
      5 C         142.3522  141.0262  165.2088 C.ar    1  UNL1        0.0030
      6 C         142.7118  141.0567  163.7528 C.ar    1  UNL1        0.0346
      7 C         142.5192  142.0525  167.5896 C.ar    1  UNL1       -0.0000
      8 C         143.5347  142.4453  168.6214 C.ar    1  UNL1       -0.0000
      9 C         143.1751  142.4147  170.0773 C.ar    1  UNL1       -0.0001
     10 C         141.8000  141.9913  170.5015 C.ar    1  UNL1        0.0039
     11 C         140.7846  141.5985  169.4698 C.ar    1  UNL1        0.0714
     12 C         141.1442  141.6291  168.0138 C.ar    1  UNL1        0.0039
     13 C         139.4095  141.1752  169.8939 C.3     1  UNL1        0.4186
     14 F         138.0344  140.7518  170.3181 F       1  UNL1       -0.1659
     15 F         139.5845  139.8761  169.1647 F       1  UNL1       -0.1659
     16 F         139.2345  142.4742  170.6232 F       1  UNL1       -0.1659
     17 C         142.1852  139.9998  162.8278 C.ar    1  UNL1        0.0057
     18 C         143.0432  138.8234  162.4673 C.ar    1  UNL1        0.0208
     19 C         142.5165  137.7665  161.5424 C.ar    1  UNL1        0.0985
     20 N         141.1319  137.8860  160.9779 N.ar    1  UNL1       -0.2468
     21 C         140.2740  139.0624  161.3384 C.ar    1  UNL1        0.0749
     22 C         140.8006  140.1193  162.2634 C.ar    1  UNL1        0.0162
     23 C         138.8894  139.1819  160.7739 C.3     1  UNL1        0.1151
     24 N         137.7176  139.3613  161.6930 N.3     1  UNL1       -0.2924
     25 H         137.9203  138.8248  162.5366 H       1  UNL1        0.1236
     26 C         137.3186  140.7365  162.1398 C.3     1  UNL1        0.0688
     27 C         137.6762  141.2109  163.5171 C.3     1  UNL1        0.0172
     28 C         138.3501  142.5382  163.7017 C.3     1  UNL1        0.0041
     29 C         139.1921  142.7892  164.9176 C.3     1  UNL1        0.0172
     30 C         139.8659  144.1165  165.1022 C.3     1  UNL1        0.0686
     31 N         139.6978  145.1929  164.0710 N.3     1  UNL1       -0.2975
     32 C         138.8559  144.9418  162.8552 C.3     1  UNL1        0.0686
     33 C         138.1820  143.6145  162.6706 C.3     1  UNL1        0.0172
     34 H         140.6323  145.4303  163.7381 H       1  UNL1        0.1232
     35 O         143.9577  142.1748  161.7659 O.3     1  UNL1       -0.4528
     36 C         142.7342  142.0188  159.4793 C.ar    1  UNL1        0.1042
     37 C         141.7702  142.5869  158.4804 C.ar    1  UNL1        0.0335
     38 C         141.0656  143.8794  158.7692 C.ar    1  UNL1        0.1261
     39 C         141.3252  144.6035  160.0569 C.ar    1  UNL1        0.0234
     40 C         142.2892  144.0354  161.0558 C.ar    1  UNL1        0.0396
     41 C         142.9937  142.7430  160.7670 C.ar    1  UNL1        0.1549
     42 S         140.1016  144.4476  157.7703 S.O2    1  UNL1        0.0751
     43 O         139.9168  143.0840  157.1731 O.2     1  UNL1       -0.1499
     44 O         140.2864  145.8111  158.3675 O.2     1  UNL1       -0.1499
     45 N         139.1376  145.0157  156.7714 N.pl3   1  UNL1       -0.1925
     46 H         138.1778  144.8075  156.8400 H       1  UNL1        0.1758
     47 C         139.6359  145.9012  155.6679 C.ar    1  UNL1        0.1977
     48 N         140.7216  145.5642  154.6893 N.ar    1  UNL1       -0.1997
     49 C         140.8927  146.7339  153.7659 C.ar    1  UNL1        0.2082
     50 N         139.9128  147.7938  154.1738 N.ar    1  UNL1       -0.1840
     51 S         139.1361  147.2792  155.3493 S.2     1  UNL1        0.0508
     52 N         144.1432  139.4340  158.9017 N.1     1  UNL1       -0.1907
     53 C         143.4387  140.7264  159.1905 C.1     1  UNL1        0.1035
@<TRIPOS>BOND
     1    52    53    3
     2    53    36    1
     3    36    37   ar
     4    37    38   ar
     5    38    42    1
     6    42    43    2
     7    42    44    2
     8    42    45    1
     9    45    47    1
    10    47    48   ar
    11    48    49   ar
    12    49    50   ar
    13    50    51   ar
    14    38    39   ar
    15    39    40   ar
    16    40    41   ar
    17    41    35    1
    18    35     1    1
    19     1     2   ar
    20     2     3   ar
    21     3     4   ar
    22     4     7    1
    23     7     8   ar
    24     8     9   ar
    25     9    10   ar
    26    10    11   ar
    27    11    13    1
    28    13    14    1
    29    13    15    1
    30    13    16    1
    31    11    12   ar
    32     4     5   ar
    33     5     6   ar
    34     6    17    1
    35    17    18   ar
    36    18    19   ar
    37    19    20   ar
    38    20    21   ar
    39    21    23    1
    40    23    24    1
    41    24    26    1
    42    26    27    1
    43    27    28    1
    44    28    29    1
    45    29    30    1
    46    30    31    1
    47    31    32    1
    48    32    33    1
    49    21    22   ar
    50    41    36   ar
    51     6     1   ar
    52    22    17   ar
    53    51    47   ar
    54    12     7   ar
    55    33    28    1
    56    45    46    1
    57    24    25    1
    58    31    34    1
@<TRIPOS>MOLECULE
*****
 53 58 0 0 0
SMALL
GASTEIGER

@<TRIPOS>ATOM
      1 C         138.9226  142.6761  163.4779 C.ar    1  UNL1        0.1452
      2 C         138.9539  143.8701  164.3855 C.ar    1  UNL1        0.0375
      3 C         139.4920  143.7387  165.7794 C.ar    1  UNL1        0.0031
      4 C         139.9989  142.4134  166.2659 C.ar    1  UNL1        0.0002
      5 C         139.9677  141.2195  165.3584 C.ar    1  UNL1        0.0030
      6 C         139.4296  141.3508  163.9644 C.ar    1  UNL1        0.0346
      7 C         140.5370  142.2820  167.6598 C.ar    1  UNL1       -0.0000
      8 C         140.4057  143.4227  168.6251 C.ar    1  UNL1       -0.0000
      9 C         140.9439  143.2914  170.0190 C.ar    1  UNL1       -0.0001
     10 C         141.6133  142.0193  170.4478 C.ar    1  UNL1        0.0039
     11 C         141.7446  140.8787  169.4826 C.ar    1  UNL1        0.0714
     12 C         141.2064  141.0100  168.0886 C.ar    1  UNL1        0.0039
     13 C         142.4140  139.6067  169.9113 C.3     1  UNL1        0.4186
     14 F         143.0834  138.3346  170.3401 F       1  UNL1       -0.1659
     15 F         142.5392  140.1428  171.3066 F       1  UNL1       -0.1659
     16 F         142.2888  139.0705  168.5160 F       1  UNL1       -0.1659
     17 C         139.3984  140.1569  163.0569 C.ar    1  UNL1        0.0057
     18 C         138.1553  139.3233  162.9566 C.ar    1  UNL1        0.0208
     19 C         138.1241  138.1294  162.0491 C.ar    1  UNL1        0.0985
     20 N         139.3359  137.7690  161.2419 N.ar    1  UNL1       -0.2468
     21 C         140.5789  138.6026  161.3421 C.ar    1  UNL1        0.0749
     22 C         140.6102  139.7966  162.2496 C.ar    1  UNL1        0.0162
     23 C         141.7908  138.2422  160.5349 C.3     1  UNL1        0.1151
     24 N         142.9492  137.5497  161.1894 N.3     1  UNL1       -0.2924
     25 H         143.5041  137.1334  160.4416 H       1  UNL1        0.1236
     26 C         143.8986  138.3280  162.0513 C.3     1  UNL1        0.0688
     27 C         144.1705  139.7726  161.7526 C.3     1  UNL1        0.0172
     28 C         143.8379  140.8242  162.7692 C.3     1  UNL1        0.0041
     29 C         143.3260  142.1621  162.3242 C.3     1  UNL1        0.0172
     30 C         142.9933  143.2138  163.3408 C.3     1  UNL1        0.0686
     31 N         143.1726  142.9274  164.8023 N.3     1  UNL1       -0.2975
     32 C         143.6844  141.5895  165.2472 C.3     1  UNL1        0.0686
     33 C         144.0171  140.5379  164.2306 C.3     1  UNL1        0.0172
     34 H         142.2607  143.0546  165.2413 H       1  UNL1        0.1232
     35 O         138.3845  142.8075  162.0840 O.3     1  UNL1       -0.4528
     36 C         139.3030  142.4755  159.6764 C.ar    1  UNL1        0.1042
     37 C         140.2082  142.9061  158.5605 C.ar    1  UNL1        0.0335
     38 C         141.1000  144.0994  158.7362 C.ar    1  UNL1        0.1261
     39 C         141.0866  144.8620  160.0278 C.ar    1  UNL1        0.0234
     40 C         140.1815  144.4313  161.1437 C.ar    1  UNL1        0.0396
     41 C         139.2897  143.2381  160.9680 C.ar    1  UNL1        0.1549
     42 S         142.0051  144.5300  157.6203 S.O2    1  UNL1        0.0751
     43 O         142.1656  145.8731  158.2688 O.2     1  UNL1       -0.1499
     44 O         141.8446  143.1870  156.9719 O.2     1  UNL1       -0.1499
     45 N         142.9103  144.9607  156.5044 N.pl3   1  UNL1       -0.1925
     46 H         143.8761  145.0628  156.6656 H       1  UNL1        0.1758
     47 C         142.3438  145.2357  155.1429 C.ar    1  UNL1        0.1977
     48 N         141.0480  145.9327  154.8514 N.ar    1  UNL1       -0.1997
     49 C         140.8771  145.9897  153.3623 C.ar    1  UNL1        0.2082
     50 N         142.0674  145.3280  152.7334 N.ar    1  UNL1       -0.1840
     51 S         142.9738  144.8620  153.8339 S.2     1  UNL1        0.0508
     52 N         137.5194  140.0891  159.3250 N.1     1  UNL1       -0.1907
     53 C         138.4112  141.2823  159.5007 C.1     1  UNL1        0.1035
@<TRIPOS>BOND
     1    52    53    3
     2    53    36    1
     3    36    37   ar
     4    37    38   ar
     5    38    42    1
     6    42    43    2
     7    42    44    2
     8    42    45    1
     9    45    47    1
    10    47    48   ar
    11    48    49   ar
    12    49    50   ar
    13    50    51   ar
    14    38    39   ar
    15    39    40   ar
    16    40    41   ar
    17    41    35    1
    18    35     1    1
    19     1     2   ar
    20     2     3   ar
    21     3     4   ar
    22     4     7    1
    23     7     8   ar
    24     8     9   ar
    25     9    10   ar
    26    10    11   ar
    27    11    13    1
    28    13    14    1
    29    13    15    1
    30    13    16    1
    31    11    12   ar
    32     4     5   ar
    33     5     6   ar
    34     6    17    1
    35    17    18   ar
    36    18    19   ar
    37    19    20   ar
    38    20    21   ar
    39    21    23    1
    40    23    24    1
    41    24    26    1
    42    26    27    1
    43    27    28    1
    44    28    29    1
    45    29    30    1
    46    30    31    1
    47    31    32    1
    48    32    33    1
    49    21    22   ar
    50    41    36   ar
    51     6     1   ar
    52    22    17   ar
    53    51    47   ar
    54    12     7   ar
    55    33    28    1
    56    45    46    1
    57    24    25    1
    58    31    34    1
