@<TRIPOS>MOLECULE
*****
 19 20 0 0 0
SMALL
GASTEIGER

@<TRIPOS>ATOM
      1 C         143.2969  139.2821  164.7455 C.2     1  UNL1        0.0873
      2 C         142.7260  138.3340  163.7331 C.2     1  UNL1        0.0596
      3 C         141.2965  137.8926  163.8414 C.2     1  UNL1        0.1971
      4 O         140.7255  136.9444  162.8290 O.2     1  UNL1       -0.2865
      5 C         140.4379  138.3994  164.9622 C.ar    1  UNL1        0.0421
      6 C         139.0084  137.9581  165.0704 C.ar    1  UNL1        0.0033
      7 C         138.1499  138.4649  166.1911 C.ar    1  UNL1        0.0001
      8 C         138.7208  139.4130  167.2036 C.ar    1  UNL1        0.0001
      9 C         140.1503  139.8544  167.0953 C.ar    1  UNL1        0.0033
     10 C         141.0088  139.3476  165.9746 C.ar    1  UNL1        0.0433
     11 C         142.4384  139.7889  165.8663 C.2     1  UNL1        0.2087
     12 O         143.0093  140.7371  166.8787 O.2     1  UNL1       -0.2853
     13 N         144.7265  139.7235  164.6372 N.pl3   1  UNL1       -0.3301
     14 H         145.3857  139.4249  165.3046 H       1  UNL1        0.1469
     15 C         145.1514  140.6197  163.5120 C.3     1  UNL1        0.0871
     16 C         145.4053  142.0757  163.7678 C.3     1  UNL1        0.0212
     17 C         144.6951  143.7250  165.6454 C.3     1  UNL1        0.0001
     18 C         144.3534  142.9155  164.4297 C.3     1  UNL1        0.0017
     19 C         142.9597  142.9459  163.8760 C.3     1  UNL1        0.0001
@<TRIPOS>BOND
     1    17    18    1
     2    18    19    1
     3    18    16    1
     4    16    15    1
     5    15    13    1
     6    13     1    1
     7     1     2    2
     8     2     3    1
     9     3     4    2
    10     3     5    1
    11     5     6   ar
    12     6     7   ar
    13     7     8   ar
    14     8     9   ar
    15     9    10   ar
    16    10    11    1
    17    11    12    2
    18    11     1    1
    19    10     5   ar
    20    13    14    1
@<TRIPOS>MOLECULE
*****
 19 20 0 0 0
SMALL
GASTEIGER

@<TRIPOS>ATOM
      1 C         139.1372  139.6828  164.7974 C.2     1  UNL1        0.0873
      2 C         138.2407  138.8252  165.6406 C.2     1  UNL1        0.0596
      3 C         138.2269  138.9933  167.1311 C.2     1  UNL1        0.1971
      4 O         137.3304  138.1358  167.9743 O.2     1  UNL1       -0.2865
      5 C         139.1095  140.0191  167.7784 C.ar    1  UNL1        0.0421
      6 C         139.0956  140.1872  169.2689 C.ar    1  UNL1        0.0033
      7 C         139.9782  141.2128  169.9161 C.ar    1  UNL1        0.0001
      8 C         140.8746  142.0704  169.0729 C.ar    1  UNL1        0.0001
      9 C         140.8885  141.9023  167.5825 C.ar    1  UNL1        0.0033
     10 C         140.0059  140.8766  166.9352 C.ar    1  UNL1        0.0433
     11 C         140.0198  140.7085  165.4447 C.2     1  UNL1        0.2087
     12 O         140.9162  141.5660  164.6015 O.2     1  UNL1       -0.2853
     13 N         139.1510  139.5146  163.3069 N.pl3   1  UNL1       -0.3301
     14 H         139.7667  138.8694  162.8900 H       1  UNL1        0.1469
     15 C         138.2267  140.3296  162.4516 C.3     1  UNL1        0.0871
     16 C         137.3544  141.3773  163.0772 C.3     1  UNL1        0.0212
     17 C         138.4491  143.4780  162.0101 C.3     1  UNL1        0.0001
     18 C         137.8472  142.7888  163.1987 C.3     1  UNL1        0.0017
     19 C         137.7381  143.5112  164.5087 C.3     1  UNL1        0.0001
@<TRIPOS>BOND
     1    17    18    1
     2    18    19    1
     3    18    16    1
     4    16    15    1
     5    15    13    1
     6    13     1    1
     7     1     2    2
     8     2     3    1
     9     3     4    2
    10     3     5    1
    11     5     6   ar
    12     6     7   ar
    13     7     8   ar
    14     8     9   ar
    15     9    10   ar
    16    10    11    1
    17    11    12    2
    18    11     1    1
    19    10     5   ar
    20    13    14    1
@<TRIPOS>MOLECULE
*****
 19 20 0 0 0
SMALL
GASTEIGER

@<TRIPOS>ATOM
      1 C         140.1429  141.1514  165.5861 C.2     1  UNL1        0.0873
      2 C         139.2743  140.4072  166.5565 C.2     1  UNL1        0.0596
      3 C         139.6754  140.3077  167.9984 C.2     1  UNL1        0.1971
      4 O         138.8068  139.5635  168.9688 O.2     1  UNL1       -0.2865
      5 C         140.9451  140.9523  168.4700 C.ar    1  UNL1        0.0421
      6 C         141.3462  140.8527  169.9119 C.ar    1  UNL1        0.0033
      7 C         142.6159  141.4973  170.3834 C.ar    1  UNL1        0.0001
      8 C         143.4845  142.2415  169.4130 C.ar    1  UNL1        0.0001
      9 C         143.0834  142.3411  167.9710 C.ar    1  UNL1        0.0033
     10 C         141.8138  141.6965  167.4996 C.ar    1  UNL1        0.0433
     11 C         141.4126  141.7960  166.0576 C.2     1  UNL1        0.2087
     12 O         142.2812  142.5402  165.0871 O.2     1  UNL1       -0.2853
     13 N         139.7418  141.2509  164.1441 N.pl3   1  UNL1       -0.3301
     14 H         140.4139  141.1230  163.4362 H       1  UNL1        0.1469
     15 C         138.3166  141.5455  163.7807 C.3     1  UNL1        0.0871
     16 C         137.6302  142.7499  164.3533 C.3     1  UNL1        0.0212
     17 C         138.4652  144.7223  162.8829 C.3     1  UNL1        0.0001
     18 C         138.2664  144.1031  164.2345 C.3     1  UNL1        0.0017
     19 C         138.7040  144.8370  165.4673 C.3     1  UNL1        0.0001
@<TRIPOS>BOND
     1    17    18    1
     2    18    19    1
     3    18    16    1
     4    16    15    1
     5    15    13    1
     6    13     1    1
     7     1     2    2
     8     2     3    1
     9     3     4    2
    10     3     5    1
    11     5     6   ar
    12     6     7   ar
    13     7     8   ar
    14     8     9   ar
    15     9    10   ar
    16    10    11    1
    17    11    12    2
    18    11     1    1
    19    10     5   ar
    20    13    14    1
@<TRIPOS>MOLECULE
*****
 19 20 0 0 0
SMALL
GASTEIGER

@<TRIPOS>ATOM
      1 C         139.8666  139.9625  164.9053 C.2     1  UNL1        0.0873
      2 C         138.8583  139.0347  165.5156 C.2     1  UNL1        0.0596
      3 C         138.5374  139.1326  166.9775 C.2     1  UNL1        0.1971
      4 O         137.5291  138.2048  167.5878 O.2     1  UNL1       -0.2865
      5 C         139.2249  140.1582  167.8293 C.ar    1  UNL1        0.0421
      6 C         138.9040  140.2561  169.2913 C.ar    1  UNL1        0.0033
      7 C         139.5915  141.2817  170.1430 C.ar    1  UNL1        0.0001
      8 C         140.5998  142.2095  169.5327 C.ar    1  UNL1        0.0001
      9 C         140.9207  142.1117  168.0707 C.ar    1  UNL1        0.0033
     10 C         140.2332  141.0860  167.2190 C.ar    1  UNL1        0.0433
     11 C         140.5541  140.9881  165.7569 C.2     1  UNL1        0.2087
     12 O         141.5624  141.9159  165.1466 O.2     1  UNL1       -0.2853
     13 N         140.1875  139.8646  163.4432 N.pl3   1  UNL1       -0.3301
     14 H         139.5706  140.2458  162.7773 H       1  UNL1        0.1469
     15 C         141.4481  139.1860  162.9958 C.3     1  UNL1        0.0871
     16 C         142.1703  138.2567  163.9258 C.3     1  UNL1        0.0212
     17 C         143.3666  138.5189  166.2172 C.3     1  UNL1        0.0001
     18 C         143.3284  138.7578  164.7368 C.3     1  UNL1        0.0017
     19 C         144.4484  139.4978  164.0675 C.3     1  UNL1        0.0001
@<TRIPOS>BOND
     1    17    18    1
     2    18    19    1
     3    18    16    1
     4    16    15    1
     5    15    13    1
     6    13     1    1
     7     1     2    2
     8     2     3    1
     9     3     4    2
    10     3     5    1
    11     5     6   ar
    12     6     7   ar
    13     7     8   ar
    14     8     9   ar
    15     9    10   ar
    16    10    11    1
    17    11    12    2
    18    11     1    1
    19    10     5   ar
    20    13    14    1
@<TRIPOS>MOLECULE
*****
 19 20 0 0 0
SMALL
GASTEIGER

@<TRIPOS>ATOM
      1 C         141.1049  140.8554  165.4964 C.2     1  UNL1        0.0873
      2 C         142.0151  139.7562  165.9580 C.2     1  UNL1        0.0596
      3 C         142.4887  139.7223  167.3808 C.2     1  UNL1        0.1971
      4 O         143.3989  138.6231  167.8424 O.2     1  UNL1       -0.2865
      5 C         142.0520  140.7878  168.3422 C.ar    1  UNL1        0.0421
      6 C         142.5256  140.7540  169.7650 C.ar    1  UNL1        0.0033
      7 C         142.0889  141.8194  170.7263 C.ar    1  UNL1        0.0001
      8 C         141.1787  142.9187  170.2647 C.ar    1  UNL1        0.0001
      9 C         140.7051  142.9526  168.8419 C.ar    1  UNL1        0.0033
     10 C         141.1418  141.8871  167.8806 C.ar    1  UNL1        0.0433
     11 C         140.6682  141.9209  166.4577 C.2     1  UNL1        0.2087
     12 O         139.7580  143.0202  165.9961 O.2     1  UNL1       -0.2853
     13 N         140.6313  140.8892  164.0735 N.pl3   1  UNL1       -0.3301
     14 H         141.1579  141.3641  163.3905 H       1  UNL1        0.1469
     15 C         139.3554  140.1994  163.6911 C.3     1  UNL1        0.0871
     16 C         138.2831  139.9831  164.7174 C.3     1  UNL1        0.0212
     17 C         137.9235  138.9000  167.0514 C.3     1  UNL1        0.0001
     18 C         138.3342  138.7813  165.6136 C.3     1  UNL1        0.0017
     19 C         138.7958  137.4609  165.0720 C.3     1  UNL1        0.0001
@<TRIPOS>BOND
     1    17    18    1
     2    18    19    1
     3    18    16    1
     4    16    15    1
     5    15    13    1
     6    13     1    1
     7     1     2    2
     8     2     3    1
     9     3     4    2
    10     3     5    1
    11     5     6   ar
    12     6     7   ar
    13     7     8   ar
    14     8     9   ar
    15     9    10   ar
    16    10    11    1
    17    11    12    2
    18    11     1    1
    19    10     5   ar
    20    13    14    1
@<TRIPOS>MOLECULE
*****
 19 20 0 0 0
SMALL
GASTEIGER

@<TRIPOS>ATOM
      1 C         139.1239  139.8039  165.3963 C.2     1  UNL1        0.0873
      2 C         139.9319  140.9699  164.9088 C.2     1  UNL1        0.0596
      3 C         140.5325  141.9299  165.8925 C.2     1  UNL1        0.1971
      4 O         141.3405  143.0959  165.4050 O.2     1  UNL1       -0.2865
      5 C         140.3250  141.7240  167.3638 C.ar    1  UNL1        0.0421
      6 C         140.9256  142.6840  168.3475 C.ar    1  UNL1        0.0033
      7 C         140.7181  142.4780  169.8187 C.ar    1  UNL1        0.0001
      8 C         139.9101  141.3121  170.3062 C.ar    1  UNL1        0.0001
      9 C         139.3096  140.3521  169.3225 C.ar    1  UNL1        0.0033
     10 C         139.5170  140.5580  167.8513 C.ar    1  UNL1        0.0433
     11 C         138.9165  139.5980  166.8675 C.2     1  UNL1        0.2087
     12 O         138.1085  138.4320  167.3551 O.2     1  UNL1       -0.2853
     13 N         138.5234  138.8439  164.4126 N.pl3   1  UNL1       -0.3301
     14 H         137.5754  138.9264  164.1602 H       1  UNL1        0.1469
     15 C         139.3673  137.7582  163.8133 C.3     1  UNL1        0.0871
     16 C         140.5751  137.2557  164.5473 C.3     1  UNL1        0.0212
     17 C         142.4498  138.1207  162.9703 C.3     1  UNL1        0.0001
     18 C         141.9031  137.9256  164.3534 C.3     1  UNL1        0.0017
     19 C         142.6844  138.4003  165.5425 C.3     1  UNL1        0.0001
@<TRIPOS>BOND
     1    17    18    1
     2    18    19    1
     3    18    16    1
     4    16    15    1
     5    15    13    1
     6    13     1    1
     7     1     2    2
     8     2     3    1
     9     3     4    2
    10     3     5    1
    11     5     6   ar
    12     6     7   ar
    13     7     8   ar
    14     8     9   ar
    15     9    10   ar
    16    10    11    1
    17    11    12    2
    18    11     1    1
    19    10     5   ar
    20    13    14    1
@<TRIPOS>MOLECULE
*****
 19 20 0 0 0
SMALL
GASTEIGER

@<TRIPOS>ATOM
      1 C         140.0889  141.1298  166.0158 C.2     1  UNL1        0.0873
      2 C         139.2264  142.0792  165.2381 C.2     1  UNL1        0.0596
      3 C         139.8420  143.2652  164.5567 C.2     1  UNL1        0.1971
      4 O         138.9795  144.2146  163.7790 O.2     1  UNL1       -0.2865
      5 C         141.3201  143.5020  164.6530 C.ar    1  UNL1        0.0421
      6 C         141.9356  144.6881  163.9717 C.ar    1  UNL1        0.0033
      7 C         143.4137  144.9248  164.0680 C.ar    1  UNL1        0.0001
      8 C         144.2761  143.9755  164.8457 C.ar    1  UNL1        0.0001
      9 C         143.6606  142.7894  165.5271 C.ar    1  UNL1        0.0033
     10 C         142.1826  142.5527  165.4308 C.ar    1  UNL1        0.0433
     11 C         141.5670  141.3666  166.1122 C.2     1  UNL1        0.2087
     12 O         142.4295  140.4172  166.8899 O.2     1  UNL1       -0.2853
     13 N         139.4733  139.9437  166.6972 N.pl3   1  UNL1       -0.3301
     14 H         139.7941  139.6648  167.5852 H       1  UNL1        0.1469
     15 C         138.3689  139.1826  166.0256 C.3     1  UNL1        0.0871
     16 C         138.6297  137.8118  165.4752 C.3     1  UNL1        0.0212
     17 C         139.0887  137.8014  162.9180 C.3     1  UNL1        0.0001
     18 C         139.5771  137.6327  164.3262 C.3     1  UNL1        0.0017
     19 C         141.0130  137.2849  164.5853 C.3     1  UNL1        0.0001
@<TRIPOS>BOND
     1    17    18    1
     2    18    19    1
     3    18    16    1
     4    16    15    1
     5    15    13    1
     6    13     1    1
     7     1     2    2
     8     2     3    1
     9     3     4    2
    10     3     5    1
    11     5     6   ar
    12     6     7   ar
    13     7     8   ar
    14     8     9   ar
    15     9    10   ar
    16    10    11    1
    17    11    12    2
    18    11     1    1
    19    10     5   ar
    20    13    14    1
@<TRIPOS>MOLECULE
*****
 19 20 0 0 0
SMALL
GASTEIGER

@<TRIPOS>ATOM
      1 C         140.7396  141.3735  165.9389 C.2     1  UNL1        0.0873
      2 C         140.2671  142.5788  166.6964 C.2     1  UNL1        0.0596
      3 C         140.5360  142.6929  168.1677 C.2     1  UNL1        0.1971
      4 O         140.0635  143.8983  168.9252 O.2     1  UNL1       -0.2865
      5 C         141.2773  141.6015  168.8815 C.ar    1  UNL1        0.0421
      6 C         141.5461  141.7156  170.3528 C.ar    1  UNL1        0.0033
      7 C         142.2874  140.6243  171.0665 C.ar    1  UNL1        0.0001
      8 C         142.7599  139.4189  170.3090 C.ar    1  UNL1        0.0001
      9 C         142.4911  139.3048  168.8377 C.ar    1  UNL1        0.0033
     10 C         141.7498  140.3962  168.1240 C.ar    1  UNL1        0.0433
     11 C         141.4809  140.2821  166.6526 C.2     1  UNL1        0.2087
     12 O         141.9534  139.0768  165.8951 O.2     1  UNL1       -0.2853
     13 N         140.4707  141.2594  164.4675 N.pl3   1  UNL1       -0.3301
     14 H         141.1775  141.4820  163.8193 H       1  UNL1        0.1469
     15 C         139.1251  140.8063  163.9839 C.3     1  UNL1        0.0871
     16 C         138.1186  140.2717  164.9592 C.3     1  UNL1        0.0212
     17 C         138.9489  137.8168  164.7745 C.3     1  UNL1        0.0001
     18 C         138.3151  138.9171  165.5729 C.3     1  UNL1        0.0017
     19 C         137.8777  138.6629  166.9849 C.3     1  UNL1        0.0001
@<TRIPOS>BOND
     1    17    18    1
     2    18    19    1
     3    18    16    1
     4    16    15    1
     5    15    13    1
     6    13     1    1
     7     1     2    2
     8     2     3    1
     9     3     4    2
    10     3     5    1
    11     5     6   ar
    12     6     7   ar
    13     7     8   ar
    14     8     9   ar
    15     9    10   ar
    16    10    11    1
    17    11    12    2
    18    11     1    1
    19    10     5   ar
    20    13    14    1
@<TRIPOS>MOLECULE
*****
 19 20 0 0 0
SMALL
GASTEIGER

@<TRIPOS>ATOM
      1 C         141.8011  140.6228  165.8085 C.2     1  UNL1        0.0873
      2 C         140.5429  139.8068  165.7747 C.2     1  UNL1        0.0596
      3 C         139.2448  140.4461  165.3797 C.2     1  UNL1        0.1971
      4 O         137.9866  139.6300  165.3459 O.2     1  UNL1       -0.2865
      5 C         139.2047  141.9014  165.0185 C.ar    1  UNL1        0.0421
      6 C         137.9066  142.5407  164.6235 C.ar    1  UNL1        0.0033
      7 C         137.8666  143.9959  164.2623 C.ar    1  UNL1        0.0001
      8 C         139.1248  144.8120  164.2961 C.ar    1  UNL1        0.0001
      9 C         140.4229  144.1727  164.6911 C.ar    1  UNL1        0.0033
     10 C         140.4629  142.7174  165.0523 C.ar    1  UNL1        0.0433
     11 C         141.7611  142.0781  165.4473 C.2     1  UNL1        0.2087
     12 O         143.0193  142.8941  165.4811 O.2     1  UNL1       -0.2853
     13 N         143.0993  139.9835  166.2036 N.pl3   1  UNL1       -0.3301
     14 H         143.5317  140.2311  167.0526 H       1  UNL1        0.1469
     15 C         143.7387  138.9668  165.3049 C.3     1  UNL1        0.0871
     16 C         144.9058  139.3536  164.4458 C.3     1  UNL1        0.0212
     17 C         143.6951  140.6446  162.5439 C.3     1  UNL1        0.0001
     18 C         144.8096  140.5477  163.5431 C.3     1  UNL1        0.0017
     19 C         145.8278  141.6449  163.6396 C.3     1  UNL1        0.0001
@<TRIPOS>BOND
     1    17    18    1
     2    18    19    1
     3    18    16    1
     4    16    15    1
     5    15    13    1
     6    13     1    1
     7     1     2    2
     8     2     3    1
     9     3     4    2
    10     3     5    1
    11     5     6   ar
    12     6     7   ar
    13     7     8   ar
    14     8     9   ar
    15     9    10   ar
    16    10    11    1
    17    11    12    2
    18    11     1    1
    19    10     5   ar
    20    13    14    1
