@<TRIPOS>MOLECULE
*****
 38 42 0 0 0
SMALL
GASTEIGER

@<TRIPOS>ATOM
      1 C         143.9573  139.8420  160.7246 C.3     1  UNL1        0.0666
      2 S         143.9727  138.6861  161.6804 S.3     1  UNL1       -0.0756
      3 C         144.8648  140.6933  164.0938 C.3     1  UNL1        0.1340
      4 N         143.7137  139.7321  164.1266 N.ar    1  UNL1       -0.2884
      5 C         143.3036  138.8095  163.0172 C.ar    1  UNL1        0.1932
      6 N         142.1071  138.0319  163.4794 N.ar    1  UNL1       -0.1221
      7 N         141.7776  138.4739  164.8744 N.ar    1  UNL1       -0.1282
      8 C         142.7705  139.5248  165.2744 C.ar    1  UNL1        0.1683
      9 C         142.8128  140.2422  166.5911 C.ar    1  UNL1        0.0551
     10 C         142.9488  141.7356  166.6274 C.ar    1  UNL1        0.0063
     11 C         142.9911  142.4530  167.9441 C.ar    1  UNL1        0.0239
     12 C         142.8975  141.6769  169.2243 C.ar    1  UNL1        0.1342
     13 N         142.7615  140.1835  169.1880 N.ar    1  UNL1       -0.2392
     14 C         142.7192  139.4662  167.8713 C.ar    1  UNL1        0.1020
     15 C         142.9398  142.3944  170.5410 C.2     1  UNL1        0.2605
     16 N         143.9659  143.4619  170.7808 N.am    1  UNL1       -0.3241
     17 O         141.9560  142.0443  171.6178 O.2     1  UNL1       -0.2687
     18 H         144.6116  143.6916  170.0740 H       1  UNL1        0.1453
     19 H         143.9937  143.9327  171.6449 H       1  UNL1        0.1453
     20 C         142.9277  140.9229  160.8714 C.3     1  UNL1        0.0294
     21 C         143.3473  142.3118  161.2519 C.3     1  UNL1        0.0730
     22 N         142.4695  143.1440  162.1390 N.3     1  UNL1       -0.2726
     23 C         142.4398  144.6427  162.1946 C.3     1  UNL1        0.0721
     24 C         141.4192  145.0485  163.2161 C.3     1  UNL1        0.0190
     25 C         140.8180  143.8006  163.7918 C.3     1  UNL1        0.0201
     26 C         139.8821  144.4978  164.7342 C.3     1  UNL1        0.0061
     27 C         139.9118  142.9991  164.6786 C.3     1  UNL1        0.0237
     28 C         141.4671  142.6236  163.1261 C.3     1  UNL1        0.0724
     29 C         139.4057  141.6711  165.1584 C.ar    1  UNL1       -0.0225
     30 C         138.7243  140.7380  164.2018 C.ar    1  UNL1       -0.0043
     31 C         138.2183  139.4100  164.6817 C.ar    1  UNL1        0.0035
     32 C         138.3935  139.0152  166.1181 C.ar    1  UNL1        0.0714
     33 C         139.0748  139.9483  167.0747 C.ar    1  UNL1        0.0035
     34 C         139.5809  141.2763  166.5949 C.ar    1  UNL1       -0.0043
     35 C         137.8874  137.6872  166.5980 C.3     1  UNL1        0.4186
     36 F         137.3813  136.3591  167.0779 F       1  UNL1       -0.1659
     37 F         138.6720  136.9989  165.5207 F       1  UNL1       -0.1659
     38 F         137.1028  138.3754  167.6753 F       1  UNL1       -0.1659
@<TRIPOS>BOND
     1     3     4    1
     2     4     5   ar
     3     5     2    1
     4     2     1    1
     5     1    20    1
     6    20    21    1
     7    21    22    1
     8    22    23    1
     9    23    24    1
    10    25    24    1
    11    25    26    1
    12    26    27    1
    13    27    29    1
    14    29    30   ar
    15    30    31   ar
    16    31    32   ar
    17    32    35    1
    18    35    36    1
    19    35    37    1
    20    35    38    1
    21    32    33   ar
    22    33    34   ar
    23    25    28    1
    24     5     6   ar
    25     6     7   ar
    26     7     8   ar
    27     8     9    1
    28     9    10   ar
    29    10    11   ar
    30    11    12   ar
    31    12    15    1
    32    15    16   am
    33    15    17    2
    34    12    13   ar
    35    13    14   ar
    36     8     4   ar
    37    14     9   ar
    38    28    22    1
    39    27    25    1
    40    34    29   ar
    41    16    18    1
    42    16    19    1
@<TRIPOS>MOLECULE
*****
 38 42 0 0 0
SMALL
GASTEIGER

@<TRIPOS>ATOM
      1 C         143.8908  142.0886  159.9655 C.3     1  UNL1        0.0666
      2 S         144.7932  142.5552  161.0691 S.3     1  UNL1       -0.0756
      3 C         144.4273  140.1306  163.2225 C.3     1  UNL1        0.1340
      4 N         144.0944  141.5745  163.4555 N.ar    1  UNL1       -0.2884
      5 C         144.2626  142.6890  162.4657 C.ar    1  UNL1        0.1932
      6 N         143.8071  143.9607  163.1177 N.ar    1  UNL1       -0.1221
      7 N         143.3573  143.6323  164.5105 N.ar    1  UNL1       -0.1282
      8 C         143.5349  142.1575  164.7193 C.ar    1  UNL1        0.1683
      9 C         143.2100  141.3989  165.9719 C.ar    1  UNL1        0.0551
     10 C         143.0220  142.1335  167.2662 C.ar    1  UNL1        0.0063
     11 C         142.6971  141.3749  168.5188 C.ar    1  UNL1        0.0239
     12 C         142.5602  139.8817  168.4770 C.ar    1  UNL1        0.1342
     13 N         142.7481  139.1471  167.1828 N.ar    1  UNL1       -0.2392
     14 C         143.0730  139.9058  165.9302 C.ar    1  UNL1        0.1020
     15 C         142.2353  139.1231  169.7297 C.2     1  UNL1        0.2605
     16 N         140.9793  139.4323  170.4892 N.am    1  UNL1       -0.3241
     17 O         143.1663  138.0554  170.2227 O.2     1  UNL1       -0.2687
     18 H         140.3682  140.1331  170.1657 H       1  UNL1        0.1453
     19 H         140.7661  138.9344  171.3114 H       1  UNL1        0.1453
     20 C         142.8426  143.0091  159.4141 C.3     1  UNL1        0.0294
     21 C         141.4247  142.9028  159.8916 C.3     1  UNL1        0.0730
     22 N         140.9829  143.6655  161.1054 N.3     1  UNL1       -0.2726
     23 C         141.0735  145.1507  161.2947 C.3     1  UNL1        0.0721
     24 C         140.5195  145.4799  162.6492 C.3     1  UNL1        0.0190
     25 C         140.0866  144.1982  163.2970 C.3     1  UNL1        0.0201
     26 C         139.6019  144.8227  164.5718 C.3     1  UNL1        0.0061
     27 C         139.5113  143.3374  164.3825 C.3     1  UNL1        0.0237
     28 C         140.3729  143.0768  162.3429 C.3     1  UNL1        0.0724
     29 C         139.1269  141.9830  164.8999 C.ar    1  UNL1       -0.0225
     30 C         138.2449  141.0893  164.0793 C.ar    1  UNL1       -0.0043
     31 C         137.8605  139.7348  164.5967 C.ar    1  UNL1        0.0035
     32 C         138.3582  139.2741  165.9346 C.ar    1  UNL1        0.0714
     33 C         139.2402  140.1678  166.7552 C.ar    1  UNL1        0.0035
     34 C         139.6246  141.5223  166.2378 C.ar    1  UNL1       -0.0043
     35 C         137.9738  137.9197  166.4520 C.3     1  UNL1        0.4186
     36 F         137.5893  136.5652  166.9694 F       1  UNL1       -0.1659
     37 F         138.5749  137.2837  165.2338 F       1  UNL1       -0.1659
     38 F         137.3726  138.5556  167.6702 F       1  UNL1       -0.1659
@<TRIPOS>BOND
     1     3     4    1
     2     4     5   ar
     3     5     2    1
     4     2     1    1
     5     1    20    1
     6    20    21    1
     7    21    22    1
     8    22    23    1
     9    23    24    1
    10    25    24    1
    11    25    26    1
    12    26    27    1
    13    27    29    1
    14    29    30   ar
    15    30    31   ar
    16    31    32   ar
    17    32    35    1
    18    35    36    1
    19    35    37    1
    20    35    38    1
    21    32    33   ar
    22    33    34   ar
    23    25    28    1
    24     5     6   ar
    25     6     7   ar
    26     7     8   ar
    27     8     9    1
    28     9    10   ar
    29    10    11   ar
    30    11    12   ar
    31    12    15    1
    32    15    16   am
    33    15    17    2
    34    12    13   ar
    35    13    14   ar
    36     8     4   ar
    37    14     9   ar
    38    28    22    1
    39    27    25    1
    40    34    29   ar
    41    16    18    1
    42    16    19    1
@<TRIPOS>MOLECULE
*****
 38 42 0 0 0
SMALL
GASTEIGER

@<TRIPOS>ATOM
      1 C         143.6973  141.5810  160.6772 C.3     1  UNL1        0.0666
      2 S         144.4680  141.9489  161.9104 S.3     1  UNL1       -0.0756
      3 C         143.0138  143.1274  164.5836 C.3     1  UNL1        0.1340
      4 N         143.5680  141.7433  164.4189 N.ar    1  UNL1       -0.2884
      5 C         144.2365  141.2016  163.1902 C.ar    1  UNL1        0.1932
      6 N         144.6327  139.7814  163.4659 N.ar    1  UNL1       -0.1221
      7 N         144.2092  139.4453  164.8651 N.ar    1  UNL1       -0.1282
      8 C         143.5512  140.6579  165.4542 C.ar    1  UNL1        0.1683
      9 C         142.9771  140.7659  166.8357 C.ar    1  UNL1        0.0551
     10 C         142.5137  139.5333  167.5539 C.ar    1  UNL1        0.0063
     11 C         141.9396  139.6414  168.9355 C.ar    1  UNL1        0.0239
     12 C         141.8290  140.9822  169.5989 C.ar    1  UNL1        0.1342
     13 N         142.2924  142.2149  168.8807 N.ar    1  UNL1       -0.2392
     14 C         142.8665  142.1067  167.4991 C.ar    1  UNL1        0.1020
     15 C         141.2550  141.0903  170.9804 C.2     1  UNL1        0.2605
     16 N         140.2854  140.0571  171.4727 N.am    1  UNL1       -0.3241
     17 O         141.6504  142.2317  171.8698 O.2     1  UNL1       -0.2687
     18 H         140.0258  139.3080  170.8890 H       1  UNL1        0.1453
     19 H         139.9086  140.1280  172.3795 H       1  UNL1        0.1453
     20 C         143.2127  142.6540  159.7477 C.3     1  UNL1        0.0294
     21 C         141.7496  142.9756  159.6712 C.3     1  UNL1        0.0730
     22 N         141.0971  143.7658  160.7665 N.3     1  UNL1       -0.2726
     23 C         141.0142  145.2614  160.8455 C.3     1  UNL1        0.0721
     24 C         140.2788  145.6190  162.1030 C.3     1  UNL1        0.0190
     25 C         139.9072  144.3444  162.8012 C.3     1  UNL1        0.0201
     26 C         139.2195  144.9970  163.9636 C.3     1  UNL1        0.0061
     27 C         139.3024  143.5014  163.8845 C.3     1  UNL1        0.0237
     28 C         140.4130  143.1990  161.9752 C.3     1  UNL1        0.0724
     29 C         139.0012  142.1512  164.4644 C.ar    1  UNL1       -0.0225
     30 C         138.1558  141.1775  163.6980 C.ar    1  UNL1       -0.0043
     31 C         137.8546  139.8273  164.2778 C.ar    1  UNL1        0.0035
     32 C         138.3987  139.4508  165.6240 C.ar    1  UNL1        0.0714
     33 C         139.2440  140.4246  166.3904 C.ar    1  UNL1        0.0035
     34 C         139.5453  141.7747  165.8106 C.ar    1  UNL1       -0.0043
     35 C         138.0974  138.1007  166.2038 C.3     1  UNL1        0.4186
     36 F         137.7961  136.7504  166.7836 F       1  UNL1       -0.1659
     37 F         137.5605  138.7527  167.4433 F       1  UNL1       -0.1659
     38 F         138.6343  137.4486  164.9643 F       1  UNL1       -0.1659
@<TRIPOS>BOND
     1     3     4    1
     2     4     5   ar
     3     5     2    1
     4     2     1    1
     5     1    20    1
     6    20    21    1
     7    21    22    1
     8    22    23    1
     9    23    24    1
    10    25    24    1
    11    25    26    1
    12    26    27    1
    13    27    29    1
    14    29    30   ar
    15    30    31   ar
    16    31    32   ar
    17    32    35    1
    18    35    36    1
    19    35    37    1
    20    35    38    1
    21    32    33   ar
    22    33    34   ar
    23    25    28    1
    24     5     6   ar
    25     6     7   ar
    26     7     8   ar
    27     8     9    1
    28     9    10   ar
    29    10    11   ar
    30    11    12   ar
    31    12    15    1
    32    15    16   am
    33    15    17    2
    34    12    13   ar
    35    13    14   ar
    36     8     4   ar
    37    14     9   ar
    38    28    22    1
    39    27    25    1
    40    34    29   ar
    41    16    18    1
    42    16    19    1
@<TRIPOS>MOLECULE
*****
 38 42 0 0 0
SMALL
GASTEIGER

@<TRIPOS>ATOM
      1 C         137.9757  140.3025  159.4092 C.3     1  UNL1        0.0666
      2 S         137.6902  139.5338  160.6652 S.3     1  UNL1       -0.0756
      3 C         139.0183  138.2681  163.3640 C.3     1  UNL1        0.1340
      4 N         138.4028  139.6304  163.2396 N.ar    1  UNL1       -0.2884
      5 C         137.7924  140.2122  161.9991 C.ar    1  UNL1        0.1932
      6 N         137.3020  141.5914  162.3267 N.ar    1  UNL1       -0.1221
      7 N         137.6094  141.8620  163.7697 N.ar    1  UNL1       -0.1282
      8 C         138.2898  140.6501  164.3340 C.ar    1  UNL1        0.1683
      9 C         138.7723  140.4865  165.7448 C.ar    1  UNL1        0.0551
     10 C         139.8141  141.4158  166.2936 C.ar    1  UNL1        0.0063
     11 C         140.2967  141.2522  167.7044 C.ar    1  UNL1        0.0239
     12 C         139.7373  140.1594  168.5664 C.ar    1  UNL1        0.1342
     13 N         138.6956  139.2301  168.0176 N.ar    1  UNL1       -0.2392
     14 C         138.2131  139.3937  166.6068 C.ar    1  UNL1        0.1020
     15 C         140.2199  139.9958  169.9772 C.2     1  UNL1        0.2605
     16 N         141.6489  140.2956  170.3206 N.am    1  UNL1       -0.3241
     17 O         139.2734  139.5325  171.0447 O.2     1  UNL1       -0.2687
     18 H         142.2702  140.5998  169.6200 H       1  UNL1        0.1453
     19 H         141.9657  140.1883  171.2466 H       1  UNL1        0.1453
     20 C         139.3861  140.6799  159.0650 C.3     1  UNL1        0.0294
     21 C         139.6995  142.0742  158.6093 C.3     1  UNL1        0.0730
     22 N         140.1672  143.0995  159.5992 N.3     1  UNL1       -0.2726
     23 C         140.0403  144.5871  159.4543 C.3     1  UNL1        0.0721
     24 C         140.6385  145.2242  160.6735 C.3     1  UNL1        0.0190
     25 C         141.1350  144.1304  161.5718 C.3     1  UNL1        0.0201
     26 C         141.6520  145.0357  162.6503 C.3     1  UNL1        0.0061
     27 C         141.7788  143.5481  162.7952 C.3     1  UNL1        0.0237
     28 C         140.8437  142.8172  160.9079 C.3     1  UNL1        0.0724
     29 C         142.2237  142.3531  163.5851 C.ar    1  UNL1       -0.0225
     30 C         141.8307  140.9742  163.1446 C.ar    1  UNL1       -0.0043
     31 C         142.2756  139.7792  163.9345 C.ar    1  UNL1        0.0035
     32 C         143.1135  139.9631  165.1650 C.ar    1  UNL1        0.0714
     33 C         143.5065  141.3421  165.6055 C.ar    1  UNL1        0.0035
     34 C         143.0616  142.5371  164.8156 C.ar    1  UNL1       -0.0043
     35 C         143.5584  138.7681  165.9549 C.3     1  UNL1        0.4186
     36 F         144.0033  137.5730  166.7448 F       1  UNL1       -0.1659
     37 F         142.2107  138.6993  166.6098 F       1  UNL1       -0.1659
     38 F         144.9060  138.8369  165.2999 F       1  UNL1       -0.1659
@<TRIPOS>BOND
     1     3     4    1
     2     4     5   ar
     3     5     2    1
     4     2     1    1
     5     1    20    1
     6    20    21    1
     7    21    22    1
     8    22    23    1
     9    23    24    1
    10    25    24    1
    11    25    26    1
    12    26    27    1
    13    27    29    1
    14    29    30   ar
    15    30    31   ar
    16    31    32   ar
    17    32    35    1
    18    35    36    1
    19    35    37    1
    20    35    38    1
    21    32    33   ar
    22    33    34   ar
    23    25    28    1
    24     5     6   ar
    25     6     7   ar
    26     7     8   ar
    27     8     9    1
    28     9    10   ar
    29    10    11   ar
    30    11    12   ar
    31    12    15    1
    32    15    16   am
    33    15    17    2
    34    12    13   ar
    35    13    14   ar
    36     8     4   ar
    37    14     9   ar
    38    28    22    1
    39    27    25    1
    40    34    29   ar
    41    16    18    1
    42    16    19    1
@<TRIPOS>MOLECULE
*****
 38 42 0 0 0
SMALL
GASTEIGER

@<TRIPOS>ATOM
      1 C         141.5247  144.2708  160.4468 C.3     1  UNL1        0.0666
      2 S         142.2959  144.0263  161.7098 S.3     1  UNL1       -0.0756
      3 C         143.4278  143.9398  164.7694 C.3     1  UNL1        0.1340
      4 N         142.1512  143.3198  164.2837 N.ar    1  UNL1       -0.2884
      5 C         141.6309  143.3595  162.8774 C.ar    1  UNL1        0.1932
      6 N         140.3289  142.6155  162.8435 N.ar    1  UNL1       -0.1221
      7 N         140.0445  142.1158  164.2290 N.ar    1  UNL1       -0.1282
      8 C         141.1707  142.5511  165.1191 C.ar    1  UNL1        0.1683
      9 C         141.2946  142.2674  166.5868 C.ar    1  UNL1        0.0551
     10 C         140.3548  142.9177  167.5584 C.ar    1  UNL1        0.0063
     11 C         140.4788  142.6341  169.0261 C.ar    1  UNL1        0.0239
     12 C         141.5426  141.7001  169.5222 C.ar    1  UNL1        0.1342
     13 N         142.4824  141.0498  168.5507 N.ar    1  UNL1       -0.2392
     14 C         142.3584  141.3335  167.0829 C.ar    1  UNL1        0.1020
     15 C         141.6665  141.4165  170.9899 C.2     1  UNL1        0.2605
     16 N         142.7388  140.4931  171.4874 N.am    1  UNL1       -0.3241
     17 O         140.7182  142.0563  171.9601 O.2     1  UNL1       -0.2687
     18 H         143.3613  140.0732  170.8507 H       1  UNL1        0.1453
     19 H         142.8202  140.3070  172.4508 H       1  UNL1        0.1453
     20 C         141.8746  143.5190  159.1968 C.3     1  UNL1        0.0294
     21 C         141.2921  142.1586  158.9519 C.3     1  UNL1        0.0730
     22 N         142.0377  140.9333  159.3908 N.3     1  UNL1       -0.2726
     23 C         143.2356  140.3394  158.7109 C.3     1  UNL1        0.0721
     24 C         143.6545  139.1258  159.4866 C.3     1  UNL1        0.0190
     25 C         142.7156  138.9697  160.6459 C.3     1  UNL1        0.0201
     26 C         143.3589  137.7348  161.2036 C.3     1  UNL1        0.0061
     27 C         142.1610  138.3287  161.8835 C.3     1  UNL1        0.0237
     28 C         141.7163  140.0868  160.5867 C.3     1  UNL1        0.0724
     29 C         141.1493  138.3016  162.9906 C.ar    1  UNL1       -0.0225
     30 C         141.5252  138.7790  164.3620 C.ar    1  UNL1       -0.0043
     31 C         140.5135  138.7519  165.4691 C.ar    1  UNL1        0.0035
     32 C         139.1258  138.2474  165.2047 C.ar    1  UNL1        0.0714
     33 C         138.7499  137.7700  163.8333 C.ar    1  UNL1        0.0035
     34 C         139.7617  137.7971  162.7262 C.ar    1  UNL1       -0.0043
     35 C         138.1141  138.2202  166.3118 C.3     1  UNL1        0.4186
     36 F         137.1023  138.1932  167.4189 F       1  UNL1       -0.1659
     37 F         137.9578  136.7392  166.1327 F       1  UNL1       -0.1659
     38 F         138.2704  139.7013  166.4909 F       1  UNL1       -0.1659
@<TRIPOS>BOND
     1     3     4    1
     2     4     5   ar
     3     5     2    1
     4     2     1    1
     5     1    20    1
     6    20    21    1
     7    21    22    1
     8    22    23    1
     9    23    24    1
    10    25    24    1
    11    25    26    1
    12    26    27    1
    13    27    29    1
    14    29    30   ar
    15    30    31   ar
    16    31    32   ar
    17    32    35    1
    18    35    36    1
    19    35    37    1
    20    35    38    1
    21    32    33   ar
    22    33    34   ar
    23    25    28    1
    24     5     6   ar
    25     6     7   ar
    26     7     8   ar
    27     8     9    1
    28     9    10   ar
    29    10    11   ar
    30    11    12   ar
    31    12    15    1
    32    15    16   am
    33    15    17    2
    34    12    13   ar
    35    13    14   ar
    36     8     4   ar
    37    14     9   ar
    38    28    22    1
    39    27    25    1
    40    34    29   ar
    41    16    18    1
    42    16    19    1
@<TRIPOS>MOLECULE
*****
 38 42 0 0 0
SMALL
GASTEIGER

@<TRIPOS>ATOM
      1 C         139.5182  138.1879  161.3046 C.3     1  UNL1        0.0666
      2 S         138.3712  138.3998  162.2477 S.3     1  UNL1       -0.0756
      3 C         139.8775  137.8948  165.0982 C.3     1  UNL1        0.1340
      4 N         139.1866  139.1580  164.6777 N.ar    1  UNL1       -0.2884
      5 C         138.4943  139.3902  163.3675 C.ar    1  UNL1        0.1932
      6 N         137.9465  140.7866  163.3737 N.ar    1  UNL1       -0.1221
      7 N         138.3004  141.4175  164.6877 N.ar    1  UNL1       -0.1282
      8 C         139.0668  140.4110  165.4937 C.ar    1  UNL1        0.1683
      9 C         139.6169  140.6207  166.8734 C.ar    1  UNL1        0.0551
     10 C         139.0346  139.8711  168.0349 C.ar    1  UNL1        0.0063
     11 C         139.5846  140.0808  169.4146 C.ar    1  UNL1        0.0239
     12 C         140.7170  141.0402  169.6327 C.ar    1  UNL1        0.1342
     13 N         141.2993  141.7897  168.4712 N.ar    1  UNL1       -0.2392
     14 C         140.7492  141.5800  167.0915 C.ar    1  UNL1        0.1020
     15 C         141.2670  141.2498  171.0124 C.2     1  UNL1        0.2605
     16 N         142.4765  140.4849  171.4618 N.am    1  UNL1       -0.3241
     17 O         140.6076  142.2244  171.9425 O.2     1  UNL1       -0.2687
     18 H         142.9093  139.8452  170.8513 H       1  UNL1        0.1453
     19 H         142.8375  140.6225  172.3674 H       1  UNL1        0.1453
     20 C         139.5523  138.9109  159.9907 C.3     1  UNL1        0.0294
     21 C         138.4826  139.9073  159.6549 C.3     1  UNL1        0.0730
     22 N         138.8583  141.2860  159.1988 N.3     1  UNL1       -0.2726
     23 C         138.3427  141.9803  157.9732 C.3     1  UNL1        0.0721
     24 C         138.9814  143.3358  157.9052 C.3     1  UNL1        0.0190
     25 C         139.8917  143.4793  159.0887 C.3     1  UNL1        0.0201
     26 C         140.3605  144.8654  158.7588 C.3     1  UNL1        0.0061
     27 C         140.8762  144.1711  159.9844 C.3     1  UNL1        0.0237
     28 C         139.8156  142.2124  159.8882 C.3     1  UNL1        0.0724
     29 C         141.7422  144.1696  161.2091 C.ar    1  UNL1       -0.0225
     30 C         143.0575  143.4486  161.1968 C.ar    1  UNL1       -0.0043
     31 C         143.9235  143.4471  162.4215 C.ar    1  UNL1        0.0035
     32 C         143.4743  144.1667  163.6585 C.ar    1  UNL1        0.0714
     33 C         142.1590  144.8878  163.6709 C.ar    1  UNL1        0.0035
     34 C         141.2929  144.8893  162.4462 C.ar    1  UNL1       -0.0043
     35 C         144.3403  144.1653  164.8833 C.3     1  UNL1        0.4186
     36 F         145.2064  144.1638  166.1081 F       1  UNL1       -0.1659
     37 F         144.2651  145.6624  164.9382 F       1  UNL1       -0.1659
     38 F         144.4155  142.6682  164.8283 F       1  UNL1       -0.1659
@<TRIPOS>BOND
     1     3     4    1
     2     4     5   ar
     3     5     2    1
     4     2     1    1
     5     1    20    1
     6    20    21    1
     7    21    22    1
     8    22    23    1
     9    23    24    1
    10    25    24    1
    11    25    26    1
    12    26    27    1
    13    27    29    1
    14    29    30   ar
    15    30    31   ar
    16    31    32   ar
    17    32    35    1
    18    35    36    1
    19    35    37    1
    20    35    38    1
    21    32    33   ar
    22    33    34   ar
    23    25    28    1
    24     5     6   ar
    25     6     7   ar
    26     7     8   ar
    27     8     9    1
    28     9    10   ar
    29    10    11   ar
    30    11    12   ar
    31    12    15    1
    32    15    16   am
    33    15    17    2
    34    12    13   ar
    35    13    14   ar
    36     8     4   ar
    37    14     9   ar
    38    28    22    1
    39    27    25    1
    40    34    29   ar
    41    16    18    1
    42    16    19    1
@<TRIPOS>MOLECULE
*****
 38 42 0 0 0
SMALL
GASTEIGER

@<TRIPOS>ATOM
      1 C         143.2251  137.6171  161.5005 C.3     1  UNL1        0.0666
      2 S         143.3964  138.8513  162.3357 S.3     1  UNL1       -0.0756
      3 C         143.8486  140.6262  165.0365 C.3     1  UNL1        0.1340
      4 N         142.5434  140.0590  164.5625 N.ar    1  UNL1       -0.2884
      5 C         142.3355  139.2431  163.3211 C.ar    1  UNL1        0.1932
      6 N         140.8806  138.8879  163.2380 N.ar    1  UNL1       -0.1221
      7 N         140.1892  139.4843  164.4282 N.ar    1  UNL1       -0.1282
      8 C         141.2169  140.2081  165.2468 C.ar    1  UNL1        0.1683
      9 C         140.9626  140.9505  166.5251 C.ar    1  UNL1        0.0551
     10 C         140.5440  142.3903  166.4857 C.ar    1  UNL1        0.0063
     11 C         140.2898  143.1328  167.7640 C.ar    1  UNL1        0.0239
     12 C         140.4542  142.4352  169.0818 C.ar    1  UNL1        0.1342
     13 N         140.8729  140.9954  169.1213 N.ar    1  UNL1       -0.2392
     14 C         141.1271  140.2530  167.8428 C.ar    1  UNL1        0.1020
     15 C         140.2000  143.1777  170.3602 C.2     1  UNL1        0.2605
     16 N         140.0405  144.6691  170.3424 N.am    1  UNL1       -0.3241
     17 O         140.1053  142.4287  171.6564 O.2     1  UNL1       -0.2687
     18 H         140.1027  145.1606  169.4916 H       1  UNL1        0.1453
     19 H         139.8737  145.1563  171.1814 H       1  UNL1        0.1453
     20 C         143.1281  137.7291  160.0078 C.3     1  UNL1        0.0294
     21 C         142.8068  139.0501  159.3740 C.3     1  UNL1        0.0730
     22 N         141.3960  139.3673  158.9751 N.3     1  UNL1       -0.2726
     23 C         140.6787  138.8324  157.7712 C.3     1  UNL1        0.0721
     24 C         139.2943  139.4095  157.7622 C.3     1  UNL1        0.0190
     25 C         139.1558  140.3011  158.9605 C.3     1  UNL1        0.0201
     26 C         137.7383  140.7097  158.6890 C.3     1  UNL1        0.0061
     27 C         138.4556  141.2446  159.8930 C.3     1  UNL1        0.0237
     28 C         140.4548  140.2750  159.7101 C.3     1  UNL1        0.0724
     29 C         138.4654  142.0981  161.1264 C.ar    1  UNL1       -0.0225
     30 C         139.1868  143.4133  161.1226 C.ar    1  UNL1       -0.0043
     31 C         139.1966  144.2668  162.3560 C.ar    1  UNL1        0.0035
     32 C         138.4851  143.8052  163.5932 C.ar    1  UNL1        0.0714
     33 C         137.7638  142.4900  163.5970 C.ar    1  UNL1        0.0035
     34 C         137.7540  141.6365  162.3636 C.ar    1  UNL1       -0.0043
     35 C         138.4950  144.6587  164.8266 C.3     1  UNL1        0.4186
     36 F         138.5048  145.5123  166.0601 F       1  UNL1       -0.1659
     37 F         137.0646  144.2927  165.0913 F       1  UNL1       -0.1659
     38 F         139.9253  145.0247  164.5620 F       1  UNL1       -0.1659
@<TRIPOS>BOND
     1     3     4    1
     2     4     5   ar
     3     5     2    1
     4     2     1    1
     5     1    20    1
     6    20    21    1
     7    21    22    1
     8    22    23    1
     9    23    24    1
    10    25    24    1
    11    25    26    1
    12    26    27    1
    13    27    29    1
    14    29    30   ar
    15    30    31   ar
    16    31    32   ar
    17    32    35    1
    18    35    36    1
    19    35    37    1
    20    35    38    1
    21    32    33   ar
    22    33    34   ar
    23    25    28    1
    24     5     6   ar
    25     6     7   ar
    26     7     8   ar
    27     8     9    1
    28     9    10   ar
    29    10    11   ar
    30    11    12   ar
    31    12    15    1
    32    15    16   am
    33    15    17    2
    34    12    13   ar
    35    13    14   ar
    36     8     4   ar
    37    14     9   ar
    38    28    22    1
    39    27    25    1
    40    34    29   ar
    41    16    18    1
    42    16    19    1
@<TRIPOS>MOLECULE
*****
 38 42 0 0 0
SMALL
GASTEIGER

@<TRIPOS>ATOM
      1 C         143.7176  140.2612  161.1301 C.3     1  UNL1        0.0666
      2 S         144.5718  140.8265  162.2259 S.3     1  UNL1       -0.0756
      3 C         143.5784  139.3693  164.9717 C.3     1  UNL1        0.1340
      4 N         143.4756  140.8337  164.6638 N.ar    1  UNL1       -0.2884
      5 C         143.9322  141.5035  163.4017 C.ar    1  UNL1        0.1932
      6 N         143.6369  142.9693  163.5218 N.ar    1  UNL1       -0.1221
      7 N         142.9978  143.2054  164.8581 N.ar    1  UNL1       -0.1282
      8 C         142.8981  141.8856  165.5640 C.ar    1  UNL1        0.1683
      9 C         142.3220  141.6576  166.9301 C.ar    1  UNL1        0.0551
     10 C         143.0884  142.0822  168.1476 C.ar    1  UNL1        0.0063
     11 C         142.5123  141.8542  169.5137 C.ar    1  UNL1        0.0239
     12 C         141.1698  141.2016  169.6622 C.ar    1  UNL1        0.1342
     13 N         140.4035  140.7770  168.4447 N.ar    1  UNL1       -0.2392
     14 C         140.9796  141.0050  167.0786 C.ar    1  UNL1        0.1020
     15 C         140.5938  140.9737  171.0283 C.2     1  UNL1        0.2605
     16 N         139.9748  139.6508  171.3700 N.am    1  UNL1       -0.3241
     17 O         140.6367  142.0686  172.0526 O.2     1  UNL1       -0.2687
     18 H         139.9466  138.9322  170.6977 H       1  UNL1        0.1453
     19 H         139.5967  139.5012  172.2667 H       1  UNL1        0.1453
     20 C         143.0766  138.9154  161.2974 C.3     1  UNL1        0.0294
     21 C         142.4216  138.2457  160.1258 C.3     1  UNL1        0.0730
     22 N         141.1950  138.8479  159.5070 N.3     1  UNL1       -0.2726
     23 C         140.6002  138.4714  158.1825 C.3     1  UNL1        0.0721
     24 C         139.3854  139.3231  157.9611 C.3     1  UNL1        0.0190
     25 C         139.2295  140.2259  159.1488 C.3     1  UNL1        0.0201
     26 C         137.9933  140.9191  158.6577 C.3     1  UNL1        0.0061
     27 C         138.5881  141.2955  159.9822 C.3     1  UNL1        0.0237
     28 C         140.3479  139.9321  160.1043 C.3     1  UNL1        0.0724
     29 C         138.5612  142.1303  161.2281 C.ar    1  UNL1       -0.0225
     30 C         137.7503  141.6881  162.4100 C.ar    1  UNL1       -0.0043
     31 C         137.7234  142.5229  163.6559 C.ar    1  UNL1        0.0035
     32 C         138.5075  143.8001  163.7199 C.ar    1  UNL1        0.0714
     33 C         139.3185  144.2423  162.5381 C.ar    1  UNL1        0.0035
     34 C         139.3453  143.4075  161.2922 C.ar    1  UNL1       -0.0043
     35 C         138.4806  144.6349  164.9658 C.3     1  UNL1        0.4186
     36 F         138.4538  145.4698  166.2118 F       1  UNL1       -0.1659
     37 F         137.0126  144.3655  165.1147 F       1  UNL1       -0.1659
     38 F         139.9487  144.9043  164.8169 F       1  UNL1       -0.1659
@<TRIPOS>BOND
     1     3     4    1
     2     4     5   ar
     3     5     2    1
     4     2     1    1
     5     1    20    1
     6    20    21    1
     7    21    22    1
     8    22    23    1
     9    23    24    1
    10    25    24    1
    11    25    26    1
    12    26    27    1
    13    27    29    1
    14    29    30   ar
    15    30    31   ar
    16    31    32   ar
    17    32    35    1
    18    35    36    1
    19    35    37    1
    20    35    38    1
    21    32    33   ar
    22    33    34   ar
    23    25    28    1
    24     5     6   ar
    25     6     7   ar
    26     7     8   ar
    27     8     9    1
    28     9    10   ar
    29    10    11   ar
    30    11    12   ar
    31    12    15    1
    32    15    16   am
    33    15    17    2
    34    12    13   ar
    35    13    14   ar
    36     8     4   ar
    37    14     9   ar
    38    28    22    1
    39    27    25    1
    40    34    29   ar
    41    16    18    1
    42    16    19    1
@<TRIPOS>MOLECULE
*****
 38 42 0 0 0
SMALL
GASTEIGER

@<TRIPOS>ATOM
      1 C         144.3959  141.6999  160.2890 C.3     1  UNL1        0.0666
      2 S         144.5461  142.7459  161.3536 S.3     1  UNL1       -0.0756
      3 C         145.2761  141.0647  164.0537 C.3     1  UNL1        0.1340
      4 N         144.0489  141.9004  163.8401 N.ar    1  UNL1       -0.2884
      5 C         143.7133  142.6731  162.5991 C.ar    1  UNL1        0.1932
      6 N         142.3988  143.3604  162.8221 N.ar    1  UNL1       -0.1221
      7 N         141.9219  143.0124  164.2010 N.ar    1  UNL1       -0.1282
      8 C         142.9417  142.1101  164.8303 C.ar    1  UNL1        0.1683
      9 C         142.8674  141.5209  166.2078 C.ar    1  UNL1        0.0551
     10 C         142.6443  140.0479  166.3824 C.ar    1  UNL1        0.0063
     11 C         142.5700  139.4587  167.7599 C.ar    1  UNL1        0.0239
     12 C         142.7187  140.3427  168.9626 C.ar    1  UNL1        0.1342
     13 N         142.9417  141.8157  168.7880 N.ar    1  UNL1       -0.2392
     14 C         143.0161  142.4048  167.4105 C.ar    1  UNL1        0.1020
     15 C         142.6444  139.7535  170.3401 C.2     1  UNL1        0.2605
     16 N         143.1137  138.3495  170.5816 N.am    1  UNL1       -0.3241
     17 O         142.1007  140.5684  171.4760 O.2     1  UNL1       -0.2687
     18 H         143.4705  137.8146  169.8361 H       1  UNL1        0.1453
     19 H         143.0649  137.9628  171.4857 H       1  UNL1        0.1453
     20 C         143.8019  140.3648  160.6277 C.3     1  UNL1        0.0294
     21 C         143.0579  139.5879  159.5823 C.3     1  UNL1        0.0730
     22 N         141.5599  139.6453  159.5296 N.3     1  UNL1       -0.2726
     23 C         140.7209  139.6481  158.2862 C.3     1  UNL1        0.0721
     24 C         139.2804  139.7146  158.6992 C.3     1  UNL1        0.0190
     25 C         139.2291  139.7528  160.1979 C.3     1  UNL1        0.0201
     26 C         137.7340  139.8140  160.3021 C.3     1  UNL1        0.0061
     27 C         138.5730  139.8112  161.5455 C.3     1  UNL1        0.0237
     28 C         140.6380  139.7100  160.7111 C.3     1  UNL1        0.0724
     29 C         138.6786  139.8432  163.0414 C.ar    1  UNL1       -0.0225
     30 C         138.7593  141.1577  163.7596 C.ar    1  UNL1       -0.0043
     31 C         138.8649  141.1897  165.2555 C.ar    1  UNL1        0.0035
     32 C         138.8899  139.9073  166.0333 C.ar    1  UNL1        0.0714
     33 C         138.8092  138.5929  165.3151 C.ar    1  UNL1        0.0035
     34 C         138.7036  138.5608  163.8192 C.ar    1  UNL1       -0.0043
     35 C         138.9955  139.9394  167.5292 C.3     1  UNL1        0.4186
     36 F         139.1011  139.9715  169.0252 F       1  UNL1       -0.1659
     37 F         138.2108  138.6637  167.6119 F       1  UNL1       -0.1659
     38 F         139.7802  141.2151  167.4464 F       1  UNL1       -0.1659
@<TRIPOS>BOND
     1     3     4    1
     2     4     5   ar
     3     5     2    1
     4     2     1    1
     5     1    20    1
     6    20    21    1
     7    21    22    1
     8    22    23    1
     9    23    24    1
    10    25    24    1
    11    25    26    1
    12    26    27    1
    13    27    29    1
    14    29    30   ar
    15    30    31   ar
    16    31    32   ar
    17    32    35    1
    18    35    36    1
    19    35    37    1
    20    35    38    1
    21    32    33   ar
    22    33    34   ar
    23    25    28    1
    24     5     6   ar
    25     6     7   ar
    26     7     8   ar
    27     8     9    1
    28     9    10   ar
    29    10    11   ar
    30    11    12   ar
    31    12    15    1
    32    15    16   am
    33    15    17    2
    34    12    13   ar
    35    13    14   ar
    36     8     4   ar
    37    14     9   ar
    38    28    22    1
    39    27    25    1
    40    34    29   ar
    41    16    18    1
    42    16    19    1
