@<TRIPOS>MOLECULE
*****
 42 45 0 0 0
SMALL
GASTEIGER

@<TRIPOS>ATOM
      1 C         140.6341  143.6318  157.5509 C.ar    1  UNL1        0.2445
      2 N         139.6418  143.4126  156.4476 N.ar    1  UNL1       -0.2078
      3 C         138.9699  144.5865  155.7991 C.ar    1  UNL1        0.1135
      4 C         139.2902  145.9795  156.2539 C.ar    1  UNL1        0.0783
      5 CL        138.6183  147.1534  155.6054 Cl      1  UNL1       -0.0806
      6 C         140.2825  146.1987  157.3573 C.ar    1  UNL1        0.0336
      7 C         140.9545  145.0247  158.0058 C.ar    1  UNL1        0.1190
      8 N         141.9467  145.2439  159.1091 N.pl3   1  UNL1       -0.2104
      9 H         142.8005  145.6965  158.9206 H       1  UNL1        0.1739
     10 S         141.6383  144.7733  160.4996 S.O2    1  UNL1        0.0737
     11 O         142.9678  144.0816  160.5606 O.2     1  UNL1       -0.1499
     12 O         140.3087  145.4651  160.4387 O.2     1  UNL1       -0.1499
     13 C         141.3298  144.3028  161.8901 C.ar    1  UNL1        0.1252
     14 C         142.3748  143.5787  162.6859 C.ar    1  UNL1        0.0210
     15 C         142.0663  143.1081  164.0765 C.ar    1  UNL1        0.0127
     16 C         140.7128  143.3618  164.6711 C.ar    1  UNL1        0.0616
     17 CL        140.4043  142.8913  166.0615 Cl      1  UNL1       -0.0823
     18 C         139.6677  144.0860  163.8751 C.ar    1  UNL1        0.0833
     19 C         139.9762  144.5565  162.4847 C.ar    1  UNL1        0.0249
     20 C         138.3141  144.3396  164.4697 C.3     1  UNL1        0.4194
     21 F         136.9606  144.5932  165.0643 F       1  UNL1       -0.1658
     22 F         138.9079  145.3729  165.3807 F       1  UNL1       -0.1658
     23 F         137.7204  143.3063  163.5588 F       1  UNL1       -0.1658
     24 O         141.3060  142.4578  158.1995 O.3     1  UNL1       -0.4350
     25 C         139.3876  140.4365  161.7327 C.ar    1  UNL1        0.0536
     26 C         138.5703  141.3241  160.8414 C.ar    1  UNL1        0.0076
     27 C         139.2097  141.9978  159.6637 C.ar    1  UNL1        0.0377
     28 C         140.6665  141.7841  159.3772 C.ar    1  UNL1        0.1472
     29 C         141.4839  140.8966  160.2684 C.ar    1  UNL1        0.0377
     30 C         140.8444  140.2228  161.4462 C.ar    1  UNL1        0.0076
     31 O         138.1598  138.3911  162.7615 O.2     1  UNL1       -0.2701
     32 C         138.7481  139.7628  162.9105 C.2     1  UNL1        0.2459
     33 N         138.6970  140.4608  164.2372 N.am    1  UNL1       -0.2994
     34 H         139.0831  141.3611  164.3349 H       1  UNL1        0.1498
     35 C         138.0575  139.7871  165.4150 C.3     1  UNL1        0.1070
     36 C         138.8805  138.9203  166.3212 C.3     1  UNL1        0.0936
     37 N         140.1035  139.4790  166.9863 N.3     1  UNL1       -0.2712
     38 C         141.4341  139.3985  166.2987 C.3     1  UNL1        0.0721
     39 C         142.6570  139.9572  166.9638 C.3     1  UNL1        0.0174
     40 C         142.5492  140.5963  168.3166 C.3     1  UNL1        0.0029
     41 C         141.2186  140.6767  169.0042 C.3     1  UNL1        0.0174
     42 C         139.9957  140.1180  168.3391 C.3     1  UNL1        0.0721
@<TRIPOS>BOND
     1    31    32    2
     2    32    33   am
     3    33    35    1
     4    35    36    1
     5    36    37    1
     6    37    38    1
     7    38    39    1
     8    39    40    1
     9    40    41    1
    10    41    42    1
    11    32    25    1
    12    25    26   ar
    13    26    27   ar
    14    27    28   ar
    15    28    24    1
    16    24     1    1
    17     1     2   ar
    18     2     3   ar
    19     3     4   ar
    20     4     5    1
    21     4     6   ar
    22     6     7   ar
    23     7     8    1
    24     8    10    1
    25    10    11    2
    26    10    12    2
    27    10    13    1
    28    13    14   ar
    29    14    15   ar
    30    15    16   ar
    31    16    17    1
    32    16    18   ar
    33    18    20    1
    34    20    21    1
    35    20    22    1
    36    20    23    1
    37    18    19   ar
    38    28    29   ar
    39    29    30   ar
    40    42    37    1
    41    30    25   ar
    42     7     1   ar
    43    19    13   ar
    44    33    34    1
    45     8     9    1
@<TRIPOS>MOLECULE
*****
 42 45 0 0 0
SMALL
GASTEIGER

@<TRIPOS>ATOM
      1 C         140.4234  143.8245  157.1496 C.ar    1  UNL1        0.2445
      2 N         139.4652  143.5538  156.0278 N.ar    1  UNL1       -0.2078
      3 C         138.7794  144.6941  155.3356 C.ar    1  UNL1        0.1135
      4 C         139.0517  146.1053  155.7653 C.ar    1  UNL1        0.0783
      5 CL        138.3659  147.2457  155.0731 Cl      1  UNL1       -0.0806
      6 C         140.0100  146.3760  156.8871 C.ar    1  UNL1        0.0336
      7 C         140.6958  145.2355  157.5793 C.ar    1  UNL1        0.1190
      8 N         141.6540  145.5062  158.7011 N.pl3   1  UNL1       -0.2104
      9 H         142.5211  145.9340  158.5155 H       1  UNL1        0.1739
     10 S         141.2911  145.1252  160.1058 S.O2    1  UNL1        0.0737
     11 O         139.9441  145.7614  159.9304 O.2     1  UNL1       -0.1499
     12 O         142.6382  144.4891  160.2813 O.2     1  UNL1       -0.1499
     13 C         140.9283  144.7442  161.5105 C.ar    1  UNL1        0.1252
     14 C         139.5714  145.0829  162.0527 C.ar    1  UNL1        0.0210
     15 C         139.2085  144.7019  163.4574 C.ar    1  UNL1        0.0127
     16 C         140.2025  143.9822  164.3199 C.ar    1  UNL1        0.0616
     17 CL        139.8397  143.6012  165.7246 Cl      1  UNL1       -0.0823
     18 C         141.5595  143.6435  163.7776 C.ar    1  UNL1        0.0833
     19 C         141.9224  144.0245  162.3730 C.ar    1  UNL1        0.0249
     20 C         142.5536  142.9238  164.6401 C.3     1  UNL1        0.4194
     21 F         143.5477  142.2042  165.5026 F       1  UNL1       -0.1658
     22 F         143.2786  144.2146  164.8815 F       1  UNL1       -0.1658
     23 F         141.8286  141.6331  164.3987 F       1  UNL1       -0.1658
     24 O         141.1093  142.6840  157.8418 O.3     1  UNL1       -0.4350
     25 C         139.2226  140.7856  161.4593 C.ar    1  UNL1        0.0536
     26 C         140.6768  140.5616  161.1671 C.ar    1  UNL1        0.0076
     27 C         141.3057  141.1944  159.9613 C.ar    1  UNL1        0.0377
     28 C         140.4804  142.0512  159.0476 C.ar    1  UNL1        0.1472
     29 C         139.0263  142.2752  159.3397 C.ar    1  UNL1        0.0377
     30 C         138.3974  141.6424  160.5456 C.ar    1  UNL1        0.0076
     31 O         137.8489  138.8578  162.5300 O.2     1  UNL1       -0.2701
     32 C         138.5938  140.1527  162.6651 C.2     1  UNL1        0.2459
     33 N         138.7098  140.8149  164.0060 N.am    1  UNL1       -0.2994
     34 H         139.1987  141.6648  164.0946 H       1  UNL1        0.1498
     35 C         138.0810  140.1821  165.2119 C.3     1  UNL1        0.1070
     36 C         138.7644  139.0385  165.9011 C.3     1  UNL1        0.0936
     37 N         140.2598  139.0187  166.0178 N.3     1  UNL1       -0.2712
     38 C         140.9361  139.7782  167.1203 C.3     1  UNL1        0.0721
     39 C         142.4314  139.7584  167.2369 C.3     1  UNL1        0.0174
     40 C         143.2504  138.9790  166.2510 C.3     1  UNL1        0.0029
     41 C         142.5740  138.2194  165.1486 C.3     1  UNL1        0.0174
     42 C         141.0787  138.2393  165.0319 C.3     1  UNL1        0.0721
@<TRIPOS>BOND
     1    31    32    2
     2    32    33   am
     3    33    35    1
     4    35    36    1
     5    36    37    1
     6    37    38    1
     7    38    39    1
     8    39    40    1
     9    40    41    1
    10    41    42    1
    11    32    25    1
    12    25    26   ar
    13    26    27   ar
    14    27    28   ar
    15    28    24    1
    16    24     1    1
    17     1     2   ar
    18     2     3   ar
    19     3     4   ar
    20     4     5    1
    21     4     6   ar
    22     6     7   ar
    23     7     8    1
    24     8    10    1
    25    10    11    2
    26    10    12    2
    27    10    13    1
    28    13    14   ar
    29    14    15   ar
    30    15    16   ar
    31    16    17    1
    32    16    18   ar
    33    18    20    1
    34    20    21    1
    35    20    22    1
    36    20    23    1
    37    18    19   ar
    38    28    29   ar
    39    29    30   ar
    40    42    37    1
    41    30    25   ar
    42     7     1   ar
    43    19    13   ar
    44    33    34    1
    45     8     9    1
@<TRIPOS>MOLECULE
*****
 42 45 0 0 0
SMALL
GASTEIGER

@<TRIPOS>ATOM
      1 C         139.5308  143.6913  158.2935 C.ar    1  UNL1        0.2445
      2 N         139.7760  142.9490  157.0132 N.ar    1  UNL1       -0.2078
      3 C         140.7842  143.4638  156.0291 C.ar    1  UNL1        0.1135
      4 C         141.5472  144.7209  156.3253 C.ar    1  UNL1        0.0783
      5 CL        142.5554  145.2357  155.3412 Cl      1  UNL1       -0.0806
      6 C         141.3020  145.4631  157.6055 C.ar    1  UNL1        0.0336
      7 C         140.2938  144.9482  158.5896 C.ar    1  UNL1        0.1190
      8 N         140.0486  145.6904  159.8699 N.pl3   1  UNL1       -0.2104
      9 H         139.6100  146.5717  159.8517 H       1  UNL1        0.1739
     10 S         140.4717  145.0900  161.1777 S.O2    1  UNL1        0.0737
     11 O         139.1184  145.3876  161.7522 O.2     1  UNL1       -0.1499
     12 O         141.8249  144.7923  160.6033 O.2     1  UNL1       -0.1499
     13 C         140.8948  144.4895  162.4855 C.ar    1  UNL1        0.1252
     14 C         139.9045  144.3545  163.6041 C.ar    1  UNL1        0.0210
     15 C         140.3276  143.7540  164.9120 C.ar    1  UNL1        0.0127
     16 C         141.7410  143.2886  165.1012 C.ar    1  UNL1        0.0616
     17 CL        142.1641  142.6881  166.4090 Cl      1  UNL1       -0.0823
     18 C         142.7312  143.4236  163.9826 C.ar    1  UNL1        0.0833
     19 C         142.3081  144.0241  162.6748 C.ar    1  UNL1        0.0249
     20 C         144.1446  142.9582  164.1719 C.3     1  UNL1        0.4194
     21 F         145.5579  142.4927  164.3611 F       1  UNL1       -0.1658
     22 F         143.8072  141.6604  163.4994 F       1  UNL1       -0.1658
     23 F         144.4819  144.2559  164.8443 F       1  UNL1       -0.1658
     24 O         138.5225  143.1764  159.2776 O.3     1  UNL1       -0.4350
     25 C         139.8045  140.3670  162.5508 C.ar    1  UNL1        0.0536
     26 C         138.4665  141.0415  162.6225 C.ar    1  UNL1        0.0076
     27 C         138.0392  141.9779  161.5315 C.ar    1  UNL1        0.0377
     28 C         138.9498  142.2400  160.3686 C.ar    1  UNL1        0.1472
     29 C         140.2877  141.5656  160.2969 C.ar    1  UNL1        0.0377
     30 C         140.7151  140.6291  161.3880 C.ar    1  UNL1        0.0076
     31 O         139.2767  138.3961  164.1592 O.2     1  UNL1       -0.2701
     32 C         140.2318  139.4306  163.6419 C.2     1  UNL1        0.2459
     33 N         141.6142  139.5286  164.2156 N.am    1  UNL1       -0.2994
     34 H         142.2411  140.2076  163.8761 H       1  UNL1        0.1498
     35 C         142.0416  138.5922  165.3067 C.3     1  UNL1        0.1070
     36 C         142.6649  139.1341  166.5588 C.3     1  UNL1        0.0936
     37 N         141.8002  139.5070  167.7264 N.3     1  UNL1       -0.2712
     38 C         140.3612  139.8697  167.5084 C.3     1  UNL1        0.0721
     39 C         139.4965  140.2426  168.6760 C.3     1  UNL1        0.0174
     40 C         140.0709  140.2528  170.0616 C.3     1  UNL1        0.0029
     41 C         141.5100  139.8901  170.2796 C.3     1  UNL1        0.0174
     42 C         142.3746  139.5172  169.1120 C.3     1  UNL1        0.0721
@<TRIPOS>BOND
     1    31    32    2
     2    32    33   am
     3    33    35    1
     4    35    36    1
     5    36    37    1
     6    37    38    1
     7    38    39    1
     8    39    40    1
     9    40    41    1
    10    41    42    1
    11    32    25    1
    12    25    26   ar
    13    26    27   ar
    14    27    28   ar
    15    28    24    1
    16    24     1    1
    17     1     2   ar
    18     2     3   ar
    19     3     4   ar
    20     4     5    1
    21     4     6   ar
    22     6     7   ar
    23     7     8    1
    24     8    10    1
    25    10    11    2
    26    10    12    2
    27    10    13    1
    28    13    14   ar
    29    14    15   ar
    30    15    16   ar
    31    16    17    1
    32    16    18   ar
    33    18    20    1
    34    20    21    1
    35    20    22    1
    36    20    23    1
    37    18    19   ar
    38    28    29   ar
    39    29    30   ar
    40    42    37    1
    41    30    25   ar
    42     7     1   ar
    43    19    13   ar
    44    33    34    1
    45     8     9    1
@<TRIPOS>MOLECULE
*****
 42 45 0 0 0
SMALL
GASTEIGER

@<TRIPOS>ATOM
      1 C         138.5721  142.5658  158.6002 C.ar    1  UNL1        0.2445
      2 N         139.2086  143.7008  157.8540 N.ar    1  UNL1       -0.2078
      3 C         139.9235  143.4410  156.5612 C.ar    1  UNL1        0.1135
      4 C         140.0019  142.0464  156.0145 C.ar    1  UNL1        0.0783
      5 CL        140.7168  141.7867  154.7217 Cl      1  UNL1       -0.0806
      6 C         139.3653  140.9115  156.7607 C.ar    1  UNL1        0.0336
      7 C         138.6504  141.1712  158.0536 C.ar    1  UNL1        0.1190
      8 N         138.0139  140.0363  158.7998 N.pl3   1  UNL1       -0.2104
      9 H         137.1605  139.6584  158.4866 H       1  UNL1        0.1739
     10 S         138.6777  139.4772  160.0232 S.O2    1  UNL1        0.0737
     11 O         139.9670  139.3528  159.2669 O.2     1  UNL1       -0.1499
     12 O         137.3883  139.6015  160.7796 O.2     1  UNL1       -0.1499
     13 C         139.3414  138.9180  161.2467 C.ar    1  UNL1        0.1252
     14 C         140.6943  138.2790  161.1401 C.ar    1  UNL1        0.0210
     15 C         141.3581  137.7198  162.3636 C.ar    1  UNL1        0.0127
     16 C         140.6689  137.7998  163.6935 C.ar    1  UNL1        0.0616
     17 CL        141.3327  137.2406  164.9170 Cl      1  UNL1       -0.0823
     18 C         139.3160  138.4388  163.8000 C.ar    1  UNL1        0.0833
     19 C         138.6523  138.9980  162.5766 C.ar    1  UNL1        0.0249
     20 C         138.6269  138.5187  165.1299 C.3     1  UNL1        0.4194
     21 F         137.9378  138.5987  166.4599 F       1  UNL1       -0.1658
     22 F         138.8898  139.9948  165.1775 F       1  UNL1       -0.1658
     23 F         138.3640  137.0427  165.0824 F       1  UNL1       -0.1658
     24 O         137.8572  142.8256  159.8931 O.3     1  UNL1       -0.4350
     25 C         140.1428  142.8166  163.7694 C.ar    1  UNL1        0.0536
     26 C         140.8680  142.6231  162.4706 C.ar    1  UNL1        0.0076
     27 C         140.1061  142.6261  161.1785 C.ar    1  UNL1        0.0377
     28 C         138.6190  142.8226  161.1852 C.ar    1  UNL1        0.1472
     29 C         137.8939  143.0161  162.4838 C.ar    1  UNL1        0.0377
     30 C         138.6558  143.0131  163.7760 C.ar    1  UNL1        0.0076
     31 O         140.2673  143.3492  166.3092 O.2     1  UNL1       -0.2701
     32 C         140.9047  142.8136  165.0614 C.2     1  UNL1        0.2459
     33 N         142.3039  142.2750  165.1057 N.am    1  UNL1       -0.2994
     34 H         142.7222  141.9235  164.2868 H       1  UNL1        0.1498
     35 C         143.0659  142.2720  166.3979 C.3     1  UNL1        0.1070
     36 C         142.8555  141.1670  167.3901 C.3     1  UNL1        0.0936
     37 N         141.6408  141.1705  168.2702 N.3     1  UNL1       -0.2712
     38 C         140.5731  140.1344  168.0791 C.3     1  UNL1        0.0721
     39 C         139.3585  140.1380  168.9592 C.3     1  UNL1        0.0174
     40 C         139.2116  141.1776  170.0305 C.3     1  UNL1        0.0029
     41 C         140.2792  142.2137  170.2216 C.3     1  UNL1        0.0174
     42 C         141.4938  142.2101  169.3415 C.3     1  UNL1        0.0721
@<TRIPOS>BOND
     1    31    32    2
     2    32    33   am
     3    33    35    1
     4    35    36    1
     5    36    37    1
     6    37    38    1
     7    38    39    1
     8    39    40    1
     9    40    41    1
    10    41    42    1
    11    32    25    1
    12    25    26   ar
    13    26    27   ar
    14    27    28   ar
    15    28    24    1
    16    24     1    1
    17     1     2   ar
    18     2     3   ar
    19     3     4   ar
    20     4     5    1
    21     4     6   ar
    22     6     7   ar
    23     7     8    1
    24     8    10    1
    25    10    11    2
    26    10    12    2
    27    10    13    1
    28    13    14   ar
    29    14    15   ar
    30    15    16   ar
    31    16    17    1
    32    16    18   ar
    33    18    20    1
    34    20    21    1
    35    20    22    1
    36    20    23    1
    37    18    19   ar
    38    28    29   ar
    39    29    30   ar
    40    42    37    1
    41    30    25   ar
    42     7     1   ar
    43    19    13   ar
    44    33    34    1
    45     8     9    1
@<TRIPOS>MOLECULE
*****
 42 45 0 0 0
SMALL
GASTEIGER

@<TRIPOS>ATOM
      1 C         140.2134  143.5853  158.3308 C.ar    1  UNL1        0.2445
      2 N         140.2553  142.6084  157.1933 N.ar    1  UNL1       -0.2078
      3 C         141.4152  142.6141  156.2422 C.ar    1  UNL1        0.1135
      4 C         142.5331  143.5967  156.4285 C.ar    1  UNL1        0.0783
      5 CL        143.6929  143.6024  155.4773 Cl      1  UNL1       -0.0806
      6 C         142.4912  144.5736  157.5659 C.ar    1  UNL1        0.0336
      7 C         141.3313  144.5679  158.5171 C.ar    1  UNL1        0.1190
      8 N         141.2894  145.5448  159.6546 N.pl3   1  UNL1       -0.2104
      9 H         141.4036  146.5072  159.4814 H       1  UNL1        0.1739
     10 S         141.0735  145.0554  161.0560 S.O2    1  UNL1        0.0737
     11 O         139.7924  145.8322  161.1300 O.2     1  UNL1       -0.1499
     12 O         142.3545  144.2786  160.9821 O.2     1  UNL1       -0.1499
     13 C         140.8576  144.5659  162.4574 C.ar    1  UNL1        0.1252
     14 C         141.9042  143.7266  163.1282 C.ar    1  UNL1        0.0210
     15 C         141.6884  143.2371  164.5296 C.ar    1  UNL1        0.0127
     16 C         140.4259  143.5870  165.2601 C.ar    1  UNL1        0.0616
     17 CL        140.2101  143.0976  166.6615 Cl      1  UNL1       -0.0823
     18 C         139.3793  144.4264  164.5893 C.ar    1  UNL1        0.0833
     19 C         139.5951  144.9159  163.1879 C.ar    1  UNL1        0.0249
     20 C         138.1168  144.7763  165.3198 C.3     1  UNL1        0.4194
     21 F         136.8543  145.1263  166.0504 F       1  UNL1       -0.1658
     22 F         138.8895  145.7026  166.2115 F       1  UNL1       -0.1658
     23 F         137.3441  143.8501  164.4282 F       1  UNL1       -0.1658
     24 O         139.0535  143.5796  159.2820 O.3     1  UNL1       -0.4350
     25 C         138.8205  140.4712  162.5275 C.ar    1  UNL1        0.0536
     26 C         137.7643  141.5317  162.4274 C.ar    1  UNL1        0.0076
     27 C         137.8420  142.5678  161.3456 C.ar    1  UNL1        0.0377
     28 C         138.9758  142.5435  160.3638 C.ar    1  UNL1        0.1472
     29 C         140.0320  141.4831  160.4638 C.ar    1  UNL1        0.0377
     30 C         139.9543  140.4469  161.5457 C.ar    1  UNL1        0.0076
     31 O         139.1189  138.0132  163.3144 O.2     1  UNL1       -0.2701
     32 C         138.7428  139.4350  163.6093 C.2     1  UNL1        0.2459
     33 N         138.2891  139.8208  164.9860 N.am    1  UNL1       -0.2994
     34 H         138.0423  140.7540  165.1795 H       1  UNL1        0.1498
     35 C         138.2114  138.7846  166.0679 C.3     1  UNL1        0.1070
     36 C         138.3224  139.1931  167.5069 C.3     1  UNL1        0.0936
     37 N         139.5952  139.8003  168.0182 N.3     1  UNL1       -0.2712
     38 C         139.5928  140.5780  169.3008 C.3     1  UNL1        0.0721
     39 C         140.8655  141.1852  169.8120 C.3     1  UNL1        0.0174
     40 C         142.1406  141.0148  169.0406 C.3     1  UNL1        0.0029
     41 C         142.1430  140.2371  167.7580 C.3     1  UNL1        0.0174
     42 C         140.8702  139.6299  167.2468 C.3     1  UNL1        0.0721
@<TRIPOS>BOND
     1    31    32    2
     2    32    33   am
     3    33    35    1
     4    35    36    1
     5    36    37    1
     6    37    38    1
     7    38    39    1
     8    39    40    1
     9    40    41    1
    10    41    42    1
    11    32    25    1
    12    25    26   ar
    13    26    27   ar
    14    27    28   ar
    15    28    24    1
    16    24     1    1
    17     1     2   ar
    18     2     3   ar
    19     3     4   ar
    20     4     5    1
    21     4     6   ar
    22     6     7   ar
    23     7     8    1
    24     8    10    1
    25    10    11    2
    26    10    12    2
    27    10    13    1
    28    13    14   ar
    29    14    15   ar
    30    15    16   ar
    31    16    17    1
    32    16    18   ar
    33    18    20    1
    34    20    21    1
    35    20    22    1
    36    20    23    1
    37    18    19   ar
    38    28    29   ar
    39    29    30   ar
    40    42    37    1
    41    30    25   ar
    42     7     1   ar
    43    19    13   ar
    44    33    34    1
    45     8     9    1
@<TRIPOS>MOLECULE
*****
 42 45 0 0 0
SMALL
GASTEIGER

@<TRIPOS>ATOM
      1 C         138.1655  140.7184  159.7302 C.ar    1  UNL1        0.2445
      2 N         138.3622  139.8458  158.5261 N.ar    1  UNL1       -0.2078
      3 C         138.8062  140.4495  157.2268 C.ar    1  UNL1        0.1135
      4 C         139.0536  141.9259  157.1315 C.ar    1  UNL1        0.0783
      5 CL        139.4977  142.5296  155.8322 Cl      1  UNL1       -0.0806
      6 C         138.8570  142.7985  158.3356 C.ar    1  UNL1        0.0336
      7 C         138.4129  142.1947  159.6350 C.ar    1  UNL1        0.1190
      8 N         138.2163  143.0674  160.8391 N.pl3   1  UNL1       -0.2104
      9 H         137.4480  143.6815  160.8818 H       1  UNL1        0.1739
     10 S         139.1902  143.0043  161.9782 S.O2    1  UNL1        0.0737
     11 O         138.0544  143.0889  162.9542 O.2     1  UNL1       -0.1499
     12 O         140.3261  142.9197  161.0022 O.2     1  UNL1       -0.1499
     13 C         140.1642  142.9412  163.1172 C.ar    1  UNL1        0.1252
     14 C         139.6749  143.0620  164.5299 C.ar    1  UNL1        0.0210
     15 C         140.6488  142.9989  165.6690 C.ar    1  UNL1        0.0127
     16 C         142.1121  142.8150  165.3953 C.ar    1  UNL1        0.0616
     17 CL        143.0861  142.7519  166.5343 Cl      1  UNL1       -0.0823
     18 C         142.6015  142.6942  163.9824 C.ar    1  UNL1        0.0833
     19 C         141.6275  142.7573  162.8434 C.ar    1  UNL1        0.0249
     20 C         144.0648  142.5104  163.7087 C.3     1  UNL1        0.4194
     21 F         145.5281  142.3265  163.4350 F       1  UNL1       -0.1658
     22 F         143.8882  141.0218  163.7645 F       1  UNL1       -0.1658
     23 F         144.2414  143.9989  163.6529 F       1  UNL1       -0.1658
     24 O         137.7214  140.1146  161.0296 O.3     1  UNL1       -0.4350
     25 C         140.7513  139.1460  164.2126 C.ar    1  UNL1        0.0536
     26 C         141.1618  139.1744  162.7701 C.ar    1  UNL1        0.0076
     27 C         140.1519  139.4972  161.7091 C.ar    1  UNL1        0.0377
     28 C         138.7314  139.7917  162.0906 C.ar    1  UNL1        0.1472
     29 C         138.3209  139.7634  163.5330 C.ar    1  UNL1        0.0377
     30 C         139.3309  139.4405  164.5940 C.ar    1  UNL1        0.0076
     31 O         142.8935  137.8868  164.9712 O.2     1  UNL1       -0.2701
     32 C         141.7613  138.8231  165.2735 C.2     1  UNL1        0.2459
     33 N         141.6391  139.4366  166.6369 N.am    1  UNL1       -0.2994
     34 H         140.8960  140.0512  166.8353 H       1  UNL1        0.1498
     35 C         142.6491  139.1138  167.6979 C.3     1  UNL1        0.1070
     36 C         142.3852  139.4935  169.1248 C.3     1  UNL1        0.0936
     37 N         142.0163  140.9061  169.4692 N.3     1  UNL1       -0.2712
     38 C         143.0524  141.8376  170.0249 C.3     1  UNL1        0.0721
     39 C         142.6835  143.2501  170.3692 C.3     1  UNL1        0.0174
     40 C         141.2785  143.7312  170.1578 C.3     1  UNL1        0.0029
     41 C         140.2424  142.7996  169.6021 C.3     1  UNL1        0.0174
     42 C         140.6114  141.3871  169.2578 C.3     1  UNL1        0.0721
@<TRIPOS>BOND
     1    31    32    2
     2    32    33   am
     3    33    35    1
     4    35    36    1
     5    36    37    1
     6    37    38    1
     7    38    39    1
     8    39    40    1
     9    40    41    1
    10    41    42    1
    11    32    25    1
    12    25    26   ar
    13    26    27   ar
    14    27    28   ar
    15    28    24    1
    16    24     1    1
    17     1     2   ar
    18     2     3   ar
    19     3     4   ar
    20     4     5    1
    21     4     6   ar
    22     6     7   ar
    23     7     8    1
    24     8    10    1
    25    10    11    2
    26    10    12    2
    27    10    13    1
    28    13    14   ar
    29    14    15   ar
    30    15    16   ar
    31    16    17    1
    32    16    18   ar
    33    18    20    1
    34    20    21    1
    35    20    22    1
    36    20    23    1
    37    18    19   ar
    38    28    29   ar
    39    29    30   ar
    40    42    37    1
    41    30    25   ar
    42     7     1   ar
    43    19    13   ar
    44    33    34    1
    45     8     9    1
@<TRIPOS>MOLECULE
*****
 42 45 0 0 0
SMALL
GASTEIGER

@<TRIPOS>ATOM
      1 C         143.2520  143.3096  160.5223 C.ar    1  UNL1        0.2445
      2 N         142.2385  144.0106  159.6669 N.ar    1  UNL1       -0.2078
      3 C         141.1969  144.8837  160.3013 C.ar    1  UNL1        0.1135
      4 C         141.1687  145.0560  161.7911 C.ar    1  UNL1        0.0783
      5 CL        140.1270  145.9292  162.4255 Cl      1  UNL1       -0.0806
      6 C         142.1821  144.3551  162.6465 C.ar    1  UNL1        0.0336
      7 C         143.2238  143.4819  162.0120 C.ar    1  UNL1        0.1190
      8 N         144.2372  142.7810  162.8674 N.pl3   1  UNL1       -0.2104
      9 H         145.1763  142.7300  162.5763 H       1  UNL1        0.1739
     10 S         143.8198  142.1577  164.1665 S.O2    1  UNL1        0.0737
     11 O         144.6011  143.1961  164.9157 O.2     1  UNL1       -0.1499
     12 O         143.0386  141.1194  163.4172 O.2     1  UNL1       -0.1499
     13 C         143.4024  141.5345  165.4654 C.ar    1  UNL1        0.1252
     14 C         143.0961  140.0675  165.5291 C.ar    1  UNL1        0.0210
     15 C         142.6786  139.4441  166.8280 C.ar    1  UNL1        0.0127
     16 C         142.5676  140.2878  168.0633 C.ar    1  UNL1        0.0616
     17 CL        142.1502  139.6646  169.3622 Cl      1  UNL1       -0.0823
     18 C         142.8739  141.7549  167.9996 C.ar    1  UNL1        0.0833
     19 C         143.2914  142.3782  166.7006 C.ar    1  UNL1        0.0249
     20 C         142.7629  142.5986  169.2348 C.3     1  UNL1        0.4194
     21 F         142.6518  143.4423  170.4701 F       1  UNL1       -0.1658
     22 F         141.3632  142.9771  168.8505 F       1  UNL1       -0.1658
     23 F         144.1626  142.2201  169.6191 F       1  UNL1       -0.1658
     24 O         144.2937  142.4364  159.8878 O.3     1  UNL1       -0.4350
     25 C         143.0615  138.7556  157.6112 C.ar    1  UNL1        0.0536
     26 C         143.0953  138.7338  159.1107 C.ar    1  UNL1        0.0076
     27 C         143.5060  139.9607  159.8695 C.ar    1  UNL1        0.0377
     28 C         143.8829  141.2095  159.1290 C.ar    1  UNL1        0.1472
     29 C         143.8492  141.2313  157.6295 C.ar    1  UNL1        0.0377
     30 C         143.4385  140.0043  156.8706 C.ar    1  UNL1        0.0076
     31 O         141.2016  137.2804  156.5555 O.2     1  UNL1       -0.2701
     32 C         142.6508  137.5286  156.8523 C.2     1  UNL1        0.2459
     33 N         143.6894  136.5499  156.3903 N.am    1  UNL1       -0.2994
     34 H         144.6405  136.7128  156.5851 H       1  UNL1        0.1498
     35 C         143.2787  135.3229  155.6314 C.3     1  UNL1        0.1070
     36 C         142.5256  134.2279  156.3269 C.3     1  UNL1        0.0936
     37 N         143.2562  133.0198  156.8338 N.3     1  UNL1       -0.2712
     38 C         144.5339  133.1838  157.6023 C.3     1  UNL1        0.0721
     39 C         145.2645  131.9757  158.1090 C.3     1  UNL1        0.0174
     40 C         144.7174  130.6038  157.8473 C.3     1  UNL1        0.0029
     41 C         143.4398  130.4399  157.0788 C.3     1  UNL1        0.0174
     42 C         142.7092  131.6479  156.5720 C.3     1  UNL1        0.0721
@<TRIPOS>BOND
     1    31    32    2
     2    32    33   am
     3    33    35    1
     4    35    36    1
     5    36    37    1
     6    37    38    1
     7    38    39    1
     8    39    40    1
     9    40    41    1
    10    41    42    1
    11    32    25    1
    12    25    26   ar
    13    26    27   ar
    14    27    28   ar
    15    28    24    1
    16    24     1    1
    17     1     2   ar
    18     2     3   ar
    19     3     4   ar
    20     4     5    1
    21     4     6   ar
    22     6     7   ar
    23     7     8    1
    24     8    10    1
    25    10    11    2
    26    10    12    2
    27    10    13    1
    28    13    14   ar
    29    14    15   ar
    30    15    16   ar
    31    16    17    1
    32    16    18   ar
    33    18    20    1
    34    20    21    1
    35    20    22    1
    36    20    23    1
    37    18    19   ar
    38    28    29   ar
    39    29    30   ar
    40    42    37    1
    41    30    25   ar
    42     7     1   ar
    43    19    13   ar
    44    33    34    1
    45     8     9    1
@<TRIPOS>MOLECULE
*****
 42 45 0 0 0
SMALL
GASTEIGER

@<TRIPOS>ATOM
      1 C         142.4047  144.4891  157.6731 C.ar    1  UNL1        0.2445
      2 N         142.3458  144.2148  156.1996 N.ar    1  UNL1       -0.2078
      3 C         141.3434  144.9300  155.3431 C.ar    1  UNL1        0.1135
      4 C         140.3998  145.9195  155.9600 C.ar    1  UNL1        0.0783
      5 CL        139.3975  146.6347  155.1035 Cl      1  UNL1       -0.0806
      6 C         140.4587  146.1938  157.4336 C.ar    1  UNL1        0.0336
      7 C         141.4612  145.4786  158.2901 C.ar    1  UNL1        0.1190
      8 N         141.5201  145.7529  159.7636 N.pl3   1  UNL1       -0.2104
      9 H         142.0593  146.5032  160.1035 H       1  UNL1        0.1739
     10 S         140.7574  144.8840  160.7194 S.O2    1  UNL1        0.0737
     11 O         141.8223  145.0890  161.7556 O.2     1  UNL1       -0.1499
     12 O         139.6924  144.6790  159.6831 O.2     1  UNL1       -0.1499
     13 C         139.9947  144.0151  161.6750 C.ar    1  UNL1        0.1252
     14 C         138.9256  143.0959  161.1631 C.ar    1  UNL1        0.0210
     15 C         138.1628  142.2269  162.1188 C.ar    1  UNL1        0.0127
     16 C         138.4692  142.2773  163.5863 C.ar    1  UNL1        0.0616
     17 CL        137.7065  141.4084  164.5419 Cl      1  UNL1       -0.0823
     18 C         139.5383  143.1966  164.0981 C.ar    1  UNL1        0.0833
     19 C         140.3010  144.0654  163.1425 C.ar    1  UNL1        0.0249
     20 C         139.8447  143.2469  165.5657 C.3     1  UNL1        0.4194
     21 F         140.1511  143.2972  167.0332 F       1  UNL1       -0.1658
     22 F         140.8314  142.1296  165.3980 F       1  UNL1       -0.1658
     23 F         138.8580  144.3642  165.7333 F       1  UNL1       -0.1658
     24 O         143.4071  143.7739  158.5297 O.3     1  UNL1       -0.4350
     25 C         142.1071  140.3256  161.1122 C.ar    1  UNL1        0.0536
     26 C         141.4174  140.5861  159.8058 C.ar    1  UNL1        0.0076
     27 C         141.8507  141.7355  158.9450 C.ar    1  UNL1        0.0377
     28 C         142.9738  142.6245  159.3905 C.ar    1  UNL1        0.1472
     29 C         143.6634  142.3641  160.6968 C.ar    1  UNL1        0.0377
     30 C         143.2301  141.2146  161.5577 C.ar    1  UNL1        0.0076
     31 O         142.6622  138.1182  162.3648 O.2     1  UNL1       -0.2701
     32 C         141.6738  139.1762  161.9730 C.2     1  UNL1        0.2459
     33 N         140.2519  139.0848  162.4420 N.am    1  UNL1       -0.2994
     34 H         139.6032  139.7793  162.1849 H       1  UNL1        0.1498
     35 C         139.8185  137.9354  163.3029 C.3     1  UNL1        0.1070
     36 C         139.1584  138.1953  164.6245 C.3     1  UNL1        0.0936
     37 N         139.9362  138.8290  165.7396 N.3     1  UNL1       -0.2712
     38 C         139.2144  139.4670  166.8894 C.3     1  UNL1        0.0721
     39 C         139.9923  140.1007  168.0044 C.3     1  UNL1        0.0174
     40 C         141.4918  140.0963  167.9698 C.3     1  UNL1        0.0029
     41 C         142.2136  139.4583  166.8201 C.3     1  UNL1        0.0174
     42 C         141.4358  138.8247  165.7050 C.3     1  UNL1        0.0721
@<TRIPOS>BOND
     1    31    32    2
     2    32    33   am
     3    33    35    1
     4    35    36    1
     5    36    37    1
     6    37    38    1
     7    38    39    1
     8    39    40    1
     9    40    41    1
    10    41    42    1
    11    32    25    1
    12    25    26   ar
    13    26    27   ar
    14    27    28   ar
    15    28    24    1
    16    24     1    1
    17     1     2   ar
    18     2     3   ar
    19     3     4   ar
    20     4     5    1
    21     4     6   ar
    22     6     7   ar
    23     7     8    1
    24     8    10    1
    25    10    11    2
    26    10    12    2
    27    10    13    1
    28    13    14   ar
    29    14    15   ar
    30    15    16   ar
    31    16    17    1
    32    16    18   ar
    33    18    20    1
    34    20    21    1
    35    20    22    1
    36    20    23    1
    37    18    19   ar
    38    28    29   ar
    39    29    30   ar
    40    42    37    1
    41    30    25   ar
    42     7     1   ar
    43    19    13   ar
    44    33    34    1
    45     8     9    1
@<TRIPOS>MOLECULE
*****
 42 45 0 0 0
SMALL
GASTEIGER

@<TRIPOS>ATOM
      1 C         141.0561  138.7132  156.5179 C.ar    1  UNL1        0.2445
      2 N         140.4148  137.6692  155.6524 N.ar    1  UNL1       -0.2078
      3 C         140.9418  136.2649  155.6560 C.ar    1  UNL1        0.1135
      4 C         142.1102  135.9045  156.5251 C.ar    1  UNL1        0.0783
      5 CL        142.6372  134.5001  156.5287 Cl      1  UNL1       -0.0806
      6 C         142.7514  136.9484  157.3905 C.ar    1  UNL1        0.0336
      7 C         142.2243  138.3528  157.3869 C.ar    1  UNL1        0.1190
      8 N         142.8656  139.3968  158.2523 N.pl3   1  UNL1       -0.2104
      9 H         143.2438  140.2094  157.8450 H       1  UNL1        0.1739
     10 S         142.9306  139.2026  159.7383 S.O2    1  UNL1        0.0737
     11 O         141.4657  138.8807  159.7603 O.2     1  UNL1       -0.1499
     12 O         144.3954  139.5246  159.7163 O.2     1  UNL1       -0.1499
     13 C         142.9956  139.0085  161.2242 C.ar    1  UNL1        0.1252
     14 C         144.2466  139.3616  161.9726 C.ar    1  UNL1        0.0210
     15 C         144.3117  139.1674  163.4587 C.ar    1  UNL1        0.0127
     16 C         143.1257  138.6202  164.1962 C.ar    1  UNL1        0.0616
     17 CL        143.1907  138.4261  165.6821 Cl      1  UNL1       -0.0823
     18 C         141.8746  138.2672  163.4477 C.ar    1  UNL1        0.0833
     19 C         141.8096  138.4613  161.9617 C.ar    1  UNL1        0.0249
     20 C         140.6886  137.7200  164.1852 C.3     1  UNL1        0.4194
     21 F         139.5025  137.1728  164.9227 F       1  UNL1       -0.1658
     22 F         141.2432  136.3331  164.0481 F       1  UNL1       -0.1658
     23 F         140.1339  139.1069  164.3222 F       1  UNL1       -0.1658
     24 O         140.5290  140.1176  156.5142 O.3     1  UNL1       -0.4350
     25 C         138.6821  141.8373  160.2400 C.ar    1  UNL1        0.0536
     26 C         139.8311  142.5399  159.5794 C.ar    1  UNL1        0.0076
     27 C         140.4467  141.9666  158.3375 C.ar    1  UNL1        0.0377
     28 C         139.9134  140.6908  157.7561 C.ar    1  UNL1        0.1472
     29 C         138.7645  139.9883  158.4167 C.ar    1  UNL1        0.0377
     30 C         138.1488  140.5615  159.6587 C.ar    1  UNL1        0.0076
     31 O         137.1537  141.5691  162.3237 O.2     1  UNL1       -0.2701
     32 C         138.0665  142.4106  161.4820 C.2     1  UNL1        0.2459
     33 N         138.3638  143.8253  161.8821 N.am    1  UNL1       -0.2994
     34 H         138.9630  144.3775  161.3296 H       1  UNL1        0.1498
     35 C         137.7482  144.3986  163.1241 C.3     1  UNL1        0.1070
     36 C         138.5144  144.3900  164.4136 C.3     1  UNL1        0.0936
     37 N         139.9248  143.8802  164.4447 N.3     1  UNL1       -0.2712
     38 C         140.2039  142.4725  164.8811 C.3     1  UNL1        0.0721
     39 C         141.6143  141.9627  164.9122 C.3     1  UNL1        0.0174
     40 C         142.7454  142.8606  164.5069 C.3     1  UNL1        0.0029
     41 C         142.4663  144.2683  164.0706 C.3     1  UNL1        0.0174
     42 C         141.0559  144.7781  164.0395 C.3     1  UNL1        0.0721
@<TRIPOS>BOND
     1    31    32    2
     2    32    33   am
     3    33    35    1
     4    35    36    1
     5    36    37    1
     6    37    38    1
     7    38    39    1
     8    39    40    1
     9    40    41    1
    10    41    42    1
    11    32    25    1
    12    25    26   ar
    13    26    27   ar
    14    27    28   ar
    15    28    24    1
    16    24     1    1
    17     1     2   ar
    18     2     3   ar
    19     3     4   ar
    20     4     5    1
    21     4     6   ar
    22     6     7   ar
    23     7     8    1
    24     8    10    1
    25    10    11    2
    26    10    12    2
    27    10    13    1
    28    13    14   ar
    29    14    15   ar
    30    15    16   ar
    31    16    17    1
    32    16    18   ar
    33    18    20    1
    34    20    21    1
    35    20    22    1
    36    20    23    1
    37    18    19   ar
    38    28    29   ar
    39    29    30   ar
    40    42    37    1
    41    30    25   ar
    42     7     1   ar
    43    19    13   ar
    44    33    34    1
    45     8     9    1
