@<TRIPOS>MOLECULE
*****
 31 35 0 0 0
SMALL
GASTEIGER

@<TRIPOS>ATOM
      1 C         139.5350  139.3554  164.8799 C.ar    1  UNL1        0.0681
      2 C         140.1320  138.0684  164.3926 C.ar    1  UNL1        0.0208
      3 C         139.9819  137.6691  162.9546 C.ar    1  UNL1        0.0384
      4 C         139.2348  138.5567  162.0038 C.ar    1  UNL1        0.1385
      5 C         138.6378  139.8436  162.4910 C.ar    1  UNL1        0.0384
      6 C         138.7879  140.2430  163.9291 C.ar    1  UNL1        0.0208
      7 C         142.2314  142.3614  170.0222 C.ar    1  UNL1        0.1390
      8 C         141.2584  141.8567  171.0462 C.ar    1  UNL1        0.0384
      9 C         140.1353  140.9527  170.6321 C.ar    1  UNL1        0.0224
     10 C         139.9852  140.5534  169.1941 C.ar    1  UNL1        0.0874
     11 N         138.8622  139.6494  168.7800 N.ar    1  UNL1       -0.2318
     12 C         138.7121  139.2500  167.3420 C.ar    1  UNL1        0.1268
     13 C         137.5890  138.3460  166.9279 C.3     1  UNL1        0.0723
     14 N         139.6851  139.7547  166.3180 N.ar    1  UNL1       -0.2626
     15 C         140.8082  140.6587  166.7320 C.ar    1  UNL1        0.2670
     16 O         141.7812  141.1634  165.7081 O.2     1  UNL1       -0.2665
     17 C         140.9582  141.0581  168.1701 C.ar    1  UNL1        0.0772
     18 C         142.0813  141.9621  168.5842 C.ar    1  UNL1        0.0432
     19 C         144.7702  142.9087  170.0922 C.3     1  UNL1        0.2525
     20 O         143.3545  143.2654  170.4363 O.3     1  UNL1       -0.4714
     21 O         139.0847  138.1574  160.5658 O.3     1  UNL1       -0.4791
     22 C         140.1825  138.4522  159.5870 C.3     1  UNL1        0.1687
     23 C         141.4598  139.0810  160.0595 C.3     1  UNL1        0.0609
     24 C         142.5576  139.3758  159.0808 C.3     1  UNL1        0.0758
     25 N         142.3781  139.0417  157.6296 N.3     1  UNL1       -0.2737
     26 C         141.1009  138.4129  157.1570 C.3     1  UNL1        0.0758
     27 C         140.0031  138.1181  158.1357 C.3     1  UNL1        0.0609
     28 C         143.4760  139.3365  156.6508 C.3     1  UNL1        0.0575
     29 C         143.9582  138.7081  155.3770 C.3     1  UNL1        0.0160
     30 C         145.0285  139.7533  155.2666 C.3     1  UNL1        0.0028
     31 C         144.5462  140.3817  156.5404 C.3     1  UNL1        0.0160
@<TRIPOS>BOND
     1    19    20    1
     2    20     7    1
     3     7     8   ar
     4     8     9   ar
     5     9    10   ar
     6    10    11   ar
     7    11    12   ar
     8    12    13    1
     9    12    14   ar
    10    14     1    1
    11     1     2   ar
    12     2     3   ar
    13     3     4   ar
    14     4    21    1
    15    21    22    1
    16    22    23    1
    17    23    24    1
    18    24    25    1
    19    25    28    1
    20    28    29    1
    21    29    30    1
    22    30    31    1
    23    25    26    1
    24    26    27    1
    25     4     5   ar
    26     5     6   ar
    27    14    15   ar
    28    15    16    2
    29    15    17   ar
    30    17    18   ar
    31    18     7   ar
    32    17    10   ar
    33     6     1   ar
    34    27    22    1
    35    31    28    1
@<TRIPOS>MOLECULE
*****
 31 35 0 0 0
SMALL
GASTEIGER

@<TRIPOS>ATOM
      1 C         139.4787  141.1975  161.5168 C.ar    1  UNL1        0.0681
      2 C         138.3720  141.9979  160.8965 C.ar    1  UNL1        0.0208
      3 C         138.4653  142.4193  159.4600 C.ar    1  UNL1        0.0384
      4 C         139.6652  142.0403  158.6436 C.ar    1  UNL1        0.1385
      5 C         140.7718  141.2398  159.2637 C.ar    1  UNL1        0.0384
      6 C         140.6786  140.8184  160.7004 C.ar    1  UNL1        0.0208
      7 C         140.4639  141.6116  167.9672 C.ar    1  UNL1        0.1390
      8 C         139.7381  140.3511  168.3333 C.ar    1  UNL1        0.0384
      9 C         139.1055  139.5119  167.2630 C.ar    1  UNL1        0.0224
     10 C         139.1988  139.9333  165.8264 C.ar    1  UNL1        0.0874
     11 N         138.5662  139.0941  164.7561 N.ar    1  UNL1       -0.2318
     12 C         138.6595  139.5155  163.3195 C.ar    1  UNL1        0.1268
     13 C         138.0270  138.6763  162.2492 C.3     1  UNL1        0.0723
     14 N         139.3854  140.7761  162.9533 N.ar    1  UNL1       -0.2626
     15 C         140.0180  141.6153  164.0237 C.ar    1  UNL1        0.2670
     16 O         140.7438  142.8758  163.6575 O.2     1  UNL1       -0.2665
     17 C         139.9247  141.1938  165.4603 C.ar    1  UNL1        0.0772
     18 C         140.5572  142.0330  166.5306 C.ar    1  UNL1        0.0432
     19 C         140.3646  143.6375  169.5907 C.3     1  UNL1        0.2525
     20 O         141.0965  142.4508  169.0375 O.3     1  UNL1       -0.4714
     21 O         139.7585  142.4616  157.2071 O.3     1  UNL1       -0.4791
     22 C         139.5884  143.9052  156.8363 C.3     1  UNL1        0.1687
     23 C         140.3402  144.9654  157.5851 C.3     1  UNL1        0.0609
     24 C         140.1702  146.4089  157.2144 C.3     1  UNL1        0.0758
     25 N         139.2484  146.7921  156.0948 N.3     1  UNL1       -0.2737
     26 C         138.4966  145.7318  155.3460 C.3     1  UNL1        0.0758
     27 C         138.6666  144.2884  155.7167 C.3     1  UNL1        0.0609
     28 C         139.0783  148.2356  155.7241 C.3     1  UNL1        0.0575
     29 C         138.4531  149.4321  156.3780 C.3     1  UNL1        0.0160
     30 C         138.8377  150.2770  155.1998 C.3     1  UNL1        0.0028
     31 C         139.4629  149.0805  154.5459 C.3     1  UNL1        0.0160
@<TRIPOS>BOND
     1    19    20    1
     2    20     7    1
     3     7     8   ar
     4     8     9   ar
     5     9    10   ar
     6    10    11   ar
     7    11    12   ar
     8    12    13    1
     9    12    14   ar
    10    14     1    1
    11     1     2   ar
    12     2     3   ar
    13     3     4   ar
    14     4    21    1
    15    21    22    1
    16    22    23    1
    17    23    24    1
    18    24    25    1
    19    25    28    1
    20    28    29    1
    21    29    30    1
    22    30    31    1
    23    25    26    1
    24    26    27    1
    25     4     5   ar
    26     5     6   ar
    27    14    15   ar
    28    15    16    2
    29    15    17   ar
    30    17    18   ar
    31    18     7   ar
    32    17    10   ar
    33     6     1   ar
    34    27    22    1
    35    31    28    1
@<TRIPOS>MOLECULE
*****
 31 35 0 0 0
SMALL
GASTEIGER

@<TRIPOS>ATOM
      1 C         141.2515  138.7218  162.0413 C.ar    1  UNL1        0.0681
      2 C         140.7762  139.5374  160.8756 C.ar    1  UNL1        0.0208
      3 C         141.3754  139.3244  159.5171 C.ar    1  UNL1        0.0384
      4 C         142.4500  138.2957  159.3243 C.ar    1  UNL1        0.1385
      5 C         142.9253  137.4801  160.4900 C.ar    1  UNL1        0.0384
      6 C         142.3261  137.6932  161.8485 C.ar    1  UNL1        0.0208
      7 C         141.0088  140.8140  168.2311 C.ar    1  UNL1        0.1390
      8 C         139.6321  140.3006  168.5324 C.ar    1  UNL1        0.0384
      9 C         138.8545  139.5741  167.4753 C.ar    1  UNL1        0.0224
     10 C         139.4538  139.3610  166.1168 C.ar    1  UNL1        0.0874
     11 N         138.6762  138.6345  165.0596 N.ar    1  UNL1       -0.2318
     12 C         139.2755  138.4214  163.7012 C.ar    1  UNL1        0.1268
     13 C         138.4979  137.6949  162.6440 C.3     1  UNL1        0.0723
     14 N         140.6523  138.9349  163.3998 N.ar    1  UNL1       -0.2626
     15 C         141.4298  139.6614  164.4570 C.ar    1  UNL1        0.2670
     16 O         142.8066  140.1749  164.1557 O.2     1  UNL1       -0.2665
     17 C         140.8305  139.8745  165.8155 C.ar    1  UNL1        0.0772
     18 C         141.6081  140.6010  166.8727 C.ar    1  UNL1        0.0432
     19 C         143.1284  142.1262  168.9629 C.3     1  UNL1        0.2525
     20 O         141.7864  141.5406  169.2883 O.3     1  UNL1       -0.4714
     21 O         143.0492  138.0827  157.9658 O.3     1  UNL1       -0.4791
     22 C         142.6269  136.9067  157.1358 C.3     1  UNL1        0.1687
     23 C         143.3382  135.5939  157.2785 C.3     1  UNL1        0.0609
     24 C         142.9159  134.4180  156.4485 C.3     1  UNL1        0.0758
     25 N         141.7822  134.5550  155.4759 N.3     1  UNL1       -0.2737
     26 C         141.0709  135.8679  155.3332 C.3     1  UNL1        0.0758
     27 C         141.4932  137.0437  156.1632 C.3     1  UNL1        0.0609
     28 C         141.3599  133.3791  154.6458 C.3     1  UNL1        0.0575
     29 C         141.1699  133.1297  153.1789 C.3     1  UNL1        0.0160
     30 C         140.7626  131.7161  153.4719 C.3     1  UNL1        0.0028
     31 C         140.9526  131.9655  154.9388 C.3     1  UNL1        0.0160
@<TRIPOS>BOND
     1    19    20    1
     2    20     7    1
     3     7     8   ar
     4     8     9   ar
     5     9    10   ar
     6    10    11   ar
     7    11    12   ar
     8    12    13    1
     9    12    14   ar
    10    14     1    1
    11     1     2   ar
    12     2     3   ar
    13     3     4   ar
    14     4    21    1
    15    21    22    1
    16    22    23    1
    17    23    24    1
    18    24    25    1
    19    25    28    1
    20    28    29    1
    21    29    30    1
    22    30    31    1
    23    25    26    1
    24    26    27    1
    25     4     5   ar
    26     5     6   ar
    27    14    15   ar
    28    15    16    2
    29    15    17   ar
    30    17    18   ar
    31    18     7   ar
    32    17    10   ar
    33     6     1   ar
    34    27    22    1
    35    31    28    1
@<TRIPOS>MOLECULE
*****
 31 35 0 0 0
SMALL
GASTEIGER

@<TRIPOS>ATOM
      1 C         141.5564  139.6851  160.9054 C.ar    1  UNL1        0.0681
      2 C         140.2619  139.0544  160.4851 C.ar    1  UNL1        0.0208
      3 C         140.1268  138.4618  159.1138 C.ar    1  UNL1        0.0384
      4 C         141.2861  138.4999  158.1627 C.ar    1  UNL1        0.1385
      5 C         142.5805  139.1306  158.5830 C.ar    1  UNL1        0.0384
      6 C         142.7157  139.7233  159.9543 C.ar    1  UNL1        0.0208
      7 C         142.6951  139.7139  167.3438 C.ar    1  UNL1        0.1390
      8 C         142.4635  141.1811  167.5529 C.ar    1  UNL1        0.0384
      9 C         142.0968  142.0556  166.3907 C.ar    1  UNL1        0.0224
     10 C         141.9617  141.4630  165.0194 C.ar    1  UNL1        0.0874
     11 N         141.5951  142.3376  163.8572 N.ar    1  UNL1       -0.2318
     12 C         141.4599  141.7450  162.4859 C.ar    1  UNL1        0.1268
     13 C         141.0933  142.6195  161.3237 C.3     1  UNL1        0.0723
     14 N         141.6915  140.2777  162.2767 N.ar    1  UNL1       -0.2626
     15 C         142.0582  139.4032  163.4389 C.ar    1  UNL1        0.2670
     16 O         142.2897  137.9360  163.2298 O.2     1  UNL1       -0.2665
     17 C         142.1933  139.9959  164.8103 C.ar    1  UNL1        0.0772
     18 C         142.5600  139.1213  165.9725 C.ar    1  UNL1        0.0432
     19 C         142.4517  139.0880  169.8535 C.3     1  UNL1        0.2525
     20 O         143.0618  138.8394  168.5060 O.3     1  UNL1       -0.4714
     21 O         141.1510  137.9073  156.7914 O.3     1  UNL1       -0.4791
     22 C         141.7655  136.5731  156.4870 C.3     1  UNL1        0.1687
     23 C         141.2164  135.7310  155.3737 C.3     1  UNL1        0.0609
     24 C         141.8308  134.3970  155.0693 C.3     1  UNL1        0.0758
     25 N         142.9943  133.9050  155.8782 N.3     1  UNL1       -0.2737
     26 C         143.5433  134.7471  156.9915 C.3     1  UNL1        0.0758
     27 C         142.9289  136.0812  157.2959 C.3     1  UNL1        0.0609
     28 C         143.6087  132.5709  155.5738 C.3     1  UNL1        0.0575
     29 C         143.3313  131.4757  154.5870 C.3     1  UNL1        0.0160
     30 C         144.4776  130.6842  155.1432 C.3     1  UNL1        0.0028
     31 C         144.7551  131.7793  156.1300 C.3     1  UNL1        0.0160
@<TRIPOS>BOND
     1    19    20    1
     2    20     7    1
     3     7     8   ar
     4     8     9   ar
     5     9    10   ar
     6    10    11   ar
     7    11    12   ar
     8    12    13    1
     9    12    14   ar
    10    14     1    1
    11     1     2   ar
    12     2     3   ar
    13     3     4   ar
    14     4    21    1
    15    21    22    1
    16    22    23    1
    17    23    24    1
    18    24    25    1
    19    25    28    1
    20    28    29    1
    21    29    30    1
    22    30    31    1
    23    25    26    1
    24    26    27    1
    25     4     5   ar
    26     5     6   ar
    27    14    15   ar
    28    15    16    2
    29    15    17   ar
    30    17    18   ar
    31    18     7   ar
    32    17    10   ar
    33     6     1   ar
    34    27    22    1
    35    31    28    1
@<TRIPOS>MOLECULE
*****
 31 35 0 0 0
SMALL
GASTEIGER

@<TRIPOS>ATOM
      1 C         140.4516  139.8693  162.5802 C.ar    1  UNL1        0.0681
      2 C         139.4882  140.4780  161.6048 C.ar    1  UNL1        0.0208
      3 C         139.7881  140.4464  160.1355 C.ar    1  UNL1        0.0384
      4 C         141.0514  139.8062  159.6415 C.ar    1  UNL1        0.1385
      5 C         142.0148  139.1975  160.6168 C.ar    1  UNL1        0.0384
      6 C         141.7150  139.2291  162.0862 C.ar    1  UNL1        0.0208
      7 C         140.6266  142.1877  168.6912 C.ar    1  UNL1        0.1390
      8 C         139.7893  141.1075  169.3091 C.ar    1  UNL1        0.0384
      9 C         139.2519  139.9956  168.4577 C.ar    1  UNL1        0.0224
     10 C         139.5518  139.9640  166.9883 C.ar    1  UNL1        0.0874
     11 N         139.0144  138.8522  166.1369 N.ar    1  UNL1       -0.2318
     12 C         139.3143  138.8206  164.6676 C.ar    1  UNL1        0.1268
     13 C         138.7769  137.7087  163.8161 C.3     1  UNL1        0.0723
     14 N         140.1517  139.9009  164.0496 N.ar    1  UNL1       -0.2626
     15 C         140.6891  141.0128  164.9010 C.ar    1  UNL1        0.2670
     16 O         141.5264  142.0930  164.2831 O.2     1  UNL1       -0.2665
     17 C         140.3891  141.0443  166.3705 C.ar    1  UNL1        0.0772
     18 C         140.9265  142.1562  167.2219 C.ar    1  UNL1        0.0432
     19 C         142.4349  143.1055  170.3153 C.3     1  UNL1        0.2525
     20 O         141.1640  143.2996  169.5427 O.3     1  UNL1       -0.4714
     21 O         141.3513  139.7746  158.1721 O.3     1  UNL1       -0.4791
     22 C         141.4142  138.4627  157.4475 C.3     1  UNL1        0.1687
     23 C         140.2543  138.0121  156.6100 C.3     1  UNL1        0.0609
     24 C         140.3171  136.7003  155.8854 C.3     1  UNL1        0.0758
     25 N         141.5400  135.8390  155.9983 N.3     1  UNL1       -0.2737
     26 C         142.7000  136.2896  156.8358 C.3     1  UNL1        0.0758
     27 C         142.6371  137.6014  157.5604 C.3     1  UNL1        0.0609
     28 C         141.6029  134.5271  155.2737 C.3     1  UNL1        0.0575
     29 C         141.5107  134.1031  153.8378 C.3     1  UNL1        0.0160
     30 C         141.6919  132.6719  154.2488 C.3     1  UNL1        0.0028
     31 C         141.7841  133.0960  155.6847 C.3     1  UNL1        0.0160
@<TRIPOS>BOND
     1    19    20    1
     2    20     7    1
     3     7     8   ar
     4     8     9   ar
     5     9    10   ar
     6    10    11   ar
     7    11    12   ar
     8    12    13    1
     9    12    14   ar
    10    14     1    1
    11     1     2   ar
    12     2     3   ar
    13     3     4   ar
    14     4    21    1
    15    21    22    1
    16    22    23    1
    17    23    24    1
    18    24    25    1
    19    25    28    1
    20    28    29    1
    21    29    30    1
    22    30    31    1
    23    25    26    1
    24    26    27    1
    25     4     5   ar
    26     5     6   ar
    27    14    15   ar
    28    15    16    2
    29    15    17   ar
    30    17    18   ar
    31    18     7   ar
    32    17    10   ar
    33     6     1   ar
    34    27    22    1
    35    31    28    1
@<TRIPOS>MOLECULE
*****
 31 35 0 0 0
SMALL
GASTEIGER

@<TRIPOS>ATOM
      1 C         140.7136  138.8206  159.0159 C.ar    1  UNL1        0.0681
      2 C         142.1775  138.4942  158.9895 C.ar    1  UNL1        0.0208
      3 C         142.7287  137.6065  157.9134 C.ar    1  UNL1        0.0384
      4 C         141.8161  137.0451  156.8636 C.ar    1  UNL1        0.1385
      5 C         140.3523  137.3715  156.8899 C.ar    1  UNL1        0.0384
      6 C         139.8010  138.2593  157.9661 C.ar    1  UNL1        0.0208
      7 C         138.2934  140.3214  164.9014 C.ar    1  UNL1        0.1390
      8 C         138.1255  141.7904  164.6490 C.ar    1  UNL1        0.0384
      9 C         138.5089  142.3716  163.3204 C.ar    1  UNL1        0.0224
     10 C         139.0600  141.4839  162.2442 C.ar    1  UNL1        0.0874
     11 N         139.4434  142.0652  160.9156 N.ar    1  UNL1       -0.2318
     12 C         139.9946  141.1774  159.8395 C.ar    1  UNL1        0.1268
     13 C         140.3779  141.7587  158.5109 C.3     1  UNL1        0.0723
     14 N         140.1624  139.7084  160.0920 N.ar    1  UNL1       -0.2626
     15 C         139.7791  139.1271  161.4206 C.ar    1  UNL1        0.2670
     16 O         139.9470  137.6581  161.6731 O.2     1  UNL1       -0.2665
     17 C         139.2279  140.0149  162.4967 C.ar    1  UNL1        0.0772
     18 C         138.8446  139.4336  163.8253 C.ar    1  UNL1        0.0432
     19 C         138.0172  138.2619  166.4610 C.3     1  UNL1        0.2525
     20 O         137.9101  139.7401  166.2300 O.3     1  UNL1       -0.4714
     21 O         142.3673  136.1574  155.7875 O.3     1  UNL1       -0.4791
     22 C         142.5653  134.6939  156.0507 C.3     1  UNL1        0.1687
     23 C         141.6888  133.6843  155.3708 C.3     1  UNL1        0.0609
     24 C         141.8867  132.2209  155.6339 C.3     1  UNL1        0.0758
     25 N         142.9612  131.7672  156.5771 N.3     1  UNL1       -0.2737
     26 C         143.8378  132.7768  157.2570 C.3     1  UNL1        0.0758
     27 C         143.6398  134.2402  156.9938 C.3     1  UNL1        0.0609
     28 C         143.1592  130.3037  156.8403 C.3     1  UNL1        0.0575
     29 C         143.9678  129.5016  157.8164 C.3     1  UNL1        0.0160
     30 C         143.4393  128.2342  157.2126 C.3     1  UNL1        0.0028
     31 C         142.6308  129.0364  156.2365 C.3     1  UNL1        0.0160
@<TRIPOS>BOND
     1    19    20    1
     2    20     7    1
     3     7     8   ar
     4     8     9   ar
     5     9    10   ar
     6    10    11   ar
     7    11    12   ar
     8    12    13    1
     9    12    14   ar
    10    14     1    1
    11     1     2   ar
    12     2     3   ar
    13     3     4   ar
    14     4    21    1
    15    21    22    1
    16    22    23    1
    17    23    24    1
    18    24    25    1
    19    25    28    1
    20    28    29    1
    21    29    30    1
    22    30    31    1
    23    25    26    1
    24    26    27    1
    25     4     5   ar
    26     5     6   ar
    27    14    15   ar
    28    15    16    2
    29    15    17   ar
    30    17    18   ar
    31    18     7   ar
    32    17    10   ar
    33     6     1   ar
    34    27    22    1
    35    31    28    1
@<TRIPOS>MOLECULE
*****
 31 35 0 0 0
SMALL
GASTEIGER

@<TRIPOS>ATOM
      1 C         140.2427  138.9381  160.3702 C.ar    1  UNL1        0.0681
      2 C         140.3743  140.3851  160.7427 C.ar    1  UNL1        0.0208
      3 C         139.6649  140.9154  161.9533 C.ar    1  UNL1        0.0384
      4 C         138.8239  139.9986  162.7914 C.ar    1  UNL1        0.1385
      5 C         138.6924  138.5516  162.4189 C.ar    1  UNL1        0.0384
      6 C         139.4018  138.0213  161.2083 C.ar    1  UNL1        0.0208
      7 C         141.0083  137.3822  154.0660 C.ar    1  UNL1        0.1390
      8 C         142.3990  136.8345  154.1916 C.ar    1  UNL1        0.0384
      9 C         143.0803  136.8170  155.5278 C.ar    1  UNL1        0.0224
     10 C         142.3709  137.3473  156.7384 C.ar    1  UNL1        0.0874
     11 N         143.0523  137.3298  158.0746 N.ar    1  UNL1       -0.2318
     12 C         142.3429  137.8600  159.2852 C.ar    1  UNL1        0.1268
     13 C         143.0243  137.8426  160.6214 C.3     1  UNL1        0.0723
     14 N         140.9521  138.4078  159.1596 N.ar    1  UNL1       -0.2626
     15 C         140.2708  138.4253  157.8234 C.ar    1  UNL1        0.2670
     16 O         138.8800  138.9730  157.6978 O.2     1  UNL1       -0.2665
     17 C         140.9802  137.8950  156.6128 C.ar    1  UNL1        0.0772
     18 C         140.2989  137.9125  155.2765 C.ar    1  UNL1        0.0432
     19 C         139.3517  136.3180  152.3709 C.3     1  UNL1        0.2525
     20 O         140.3269  137.3997  152.7297 O.3     1  UNL1       -0.4714
     21 O         138.1146  140.5289  164.0020 O.3     1  UNL1       -0.4791
     22 C         138.9044  141.0338  165.1730 C.3     1  UNL1        0.1687
     23 C         139.2100  140.1192  166.3220 C.3     1  UNL1        0.0609
     24 C         139.9999  140.6241  167.4929 C.3     1  UNL1        0.0758
     25 N         140.4841  142.0435  167.5150 N.3     1  UNL1       -0.2737
     26 C         140.1785  142.9582  166.3660 C.3     1  UNL1        0.0758
     27 C         139.3887  142.4533  165.1950 C.3     1  UNL1        0.0609
     28 C         141.2740  142.5485  168.6860 C.3     1  UNL1        0.0575
     29 C         142.6995  142.4251  169.1363 C.3     1  UNL1        0.0160
     30 C         142.3911  143.2625  170.3420 C.3     1  UNL1        0.0028
     31 C         140.9656  143.3859  169.8917 C.3     1  UNL1        0.0160
@<TRIPOS>BOND
     1    19    20    1
     2    20     7    1
     3     7     8   ar
     4     8     9   ar
     5     9    10   ar
     6    10    11   ar
     7    11    12   ar
     8    12    13    1
     9    12    14   ar
    10    14     1    1
    11     1     2   ar
    12     2     3   ar
    13     3     4   ar
    14     4    21    1
    15    21    22    1
    16    22    23    1
    17    23    24    1
    18    24    25    1
    19    25    28    1
    20    28    29    1
    21    29    30    1
    22    30    31    1
    23    25    26    1
    24    26    27    1
    25     4     5   ar
    26     5     6   ar
    27    14    15   ar
    28    15    16    2
    29    15    17   ar
    30    17    18   ar
    31    18     7   ar
    32    17    10   ar
    33     6     1   ar
    34    27    22    1
    35    31    28    1
@<TRIPOS>MOLECULE
*****
 31 35 0 0 0
SMALL
GASTEIGER

@<TRIPOS>ATOM
      1 C         141.3001  139.6082  163.2358 C.ar    1  UNL1        0.0681
      2 C         140.8155  138.3643  162.5515 C.ar    1  UNL1        0.0208
      3 C         140.5124  138.3860  161.0826 C.ar    1  UNL1        0.0384
      4 C         140.6938  139.6515  160.2980 C.ar    1  UNL1        0.1385
      5 C         141.1783  140.8953  160.9822 C.ar    1  UNL1        0.0384
      6 C         141.4815  140.8736  162.4511 C.ar    1  UNL1        0.0208
      7 C         140.0087  139.9750  169.6348 C.ar    1  UNL1        0.1390
      8 C         141.4123  139.7373  170.1074 C.ar    1  UNL1        0.0384
      9 C         142.5127  139.5213  169.1112 C.ar    1  UNL1        0.0224
     10 C         142.2096  139.5430  167.6424 C.ar    1  UNL1        0.0874
     11 N         143.3100  139.3270  166.6462 N.ar    1  UNL1       -0.2318
     12 C         143.0069  139.3487  165.1773 C.ar    1  UNL1        0.1268
     13 C         144.1073  139.1328  164.1811 C.3     1  UNL1        0.0723
     14 N         141.6032  139.5864  164.7046 N.ar    1  UNL1       -0.2626
     15 C         140.5028  139.8024  165.7008 C.ar    1  UNL1        0.2670
     16 O         139.0992  140.0401  165.2282 O.2     1  UNL1       -0.2665
     17 C         140.8060  139.7807  167.1697 C.ar    1  UNL1        0.0772
     18 C         139.7056  139.9967  168.1659 C.ar    1  UNL1        0.0432
     19 C         137.5424  139.6272  170.3736 C.3     1  UNL1        0.2525
     20 O         138.9083  140.1910  170.6310 O.3     1  UNL1       -0.4714
     21 O         140.3906  139.6732  158.8291 O.3     1  UNL1       -0.4791
     22 C         140.7983  138.5191  157.9620 C.3     1  UNL1        0.1687
     23 C         142.1868  137.9603  158.0612 C.3     1  UNL1        0.0609
     24 C         142.5945  136.8062  157.1942 C.3     1  UNL1        0.0758
     25 N         141.6138  136.2109  156.2279 N.3     1  UNL1       -0.2737
     26 C         140.2253  136.7698  156.1287 C.3     1  UNL1        0.0758
     27 C         139.8176  137.9238  156.9957 C.3     1  UNL1        0.0609
     28 C         142.0215  135.0568  155.3608 C.3     1  UNL1        0.0575
     29 C         142.3325  133.6089  155.5993 C.3     1  UNL1        0.0160
     30 C         142.5980  133.4246  154.1346 C.3     1  UNL1        0.0028
     31 C         142.2870  134.8725  153.8960 C.3     1  UNL1        0.0160
@<TRIPOS>BOND
     1    19    20    1
     2    20     7    1
     3     7     8   ar
     4     8     9   ar
     5     9    10   ar
     6    10    11   ar
     7    11    12   ar
     8    12    13    1
     9    12    14   ar
    10    14     1    1
    11     1     2   ar
    12     2     3   ar
    13     3     4   ar
    14     4    21    1
    15    21    22    1
    16    22    23    1
    17    23    24    1
    18    24    25    1
    19    25    28    1
    20    28    29    1
    21    29    30    1
    22    30    31    1
    23    25    26    1
    24    26    27    1
    25     4     5   ar
    26     5     6   ar
    27    14    15   ar
    28    15    16    2
    29    15    17   ar
    30    17    18   ar
    31    18     7   ar
    32    17    10   ar
    33     6     1   ar
    34    27    22    1
    35    31    28    1
@<TRIPOS>MOLECULE
*****
 31 35 0 0 0
SMALL
GASTEIGER

@<TRIPOS>ATOM
      1 C         139.0720  141.1187  164.8431 C.ar    1  UNL1        0.0681
      2 C         139.6982  140.3201  163.7385 C.ar    1  UNL1        0.0208
      3 C         139.2104  140.4784  162.3289 C.ar    1  UNL1        0.0384
      4 C         138.0963  141.4355  162.0239 C.ar    1  UNL1        0.1385
      5 C         137.4702  142.2341  163.1284 C.ar    1  UNL1        0.0384
      6 C         137.9580  142.0758  164.5381 C.ar    1  UNL1        0.0208
      7 C         142.6186  142.5101  170.1568 C.ar    1  UNL1        0.1390
      8 C         142.0649  141.4184  171.0239 C.ar    1  UNL1        0.0384
      9 C         141.0234  140.4852  170.4813 C.ar    1  UNL1        0.0224
     10 C         140.5356  140.6436  169.0718 C.ar    1  UNL1        0.0874
     11 N         139.4941  139.7103  168.5293 N.ar    1  UNL1       -0.2318
     12 C         139.0062  139.8687  167.1197 C.ar    1  UNL1        0.1268
     13 C         137.9647  138.9354  166.5772 C.3     1  UNL1        0.0723
     14 N         139.5599  140.9604  166.2526 N.ar    1  UNL1       -0.2626
     15 C         140.6014  141.8936  166.7951 C.ar    1  UNL1        0.2670
     16 O         141.1550  142.9852  165.9281 O.2     1  UNL1       -0.2665
     17 C         141.0892  141.7352  168.2048 C.ar    1  UNL1        0.0772
     18 C         142.1307  142.6684  168.7473 C.ar    1  UNL1        0.0432
     19 C         145.1093  143.2115  170.3896 C.3     1  UNL1        0.2525
     20 O         143.6601  143.4433  170.6994 O.3     1  UNL1       -0.4714
     21 O         137.6085  141.5938  160.6143 O.3     1  UNL1       -0.4791
     22 C         138.4986  142.2129  159.5777 C.3     1  UNL1        0.1687
     23 C         138.4050  141.7700  158.1476 C.3     1  UNL1        0.0609
     24 C         139.2950  142.3890  157.1110 C.3     1  UNL1        0.0758
     25 N         140.2786  143.4509  157.5044 N.3     1  UNL1       -0.2737
     26 C         140.3722  143.8938  158.9345 C.3     1  UNL1        0.0758
     27 C         139.4822  143.2748  159.9711 C.3     1  UNL1        0.0609
     28 C         141.1687  144.0700  156.4678 C.3     1  UNL1        0.0575
     29 C         142.5702  143.8273  155.9914 C.3     1  UNL1        0.0160
     30 C         142.4275  144.9454  155.0018 C.3     1  UNL1        0.0028
     31 C         141.0260  145.1881  155.4781 C.3     1  UNL1        0.0160
@<TRIPOS>BOND
     1    19    20    1
     2    20     7    1
     3     7     8   ar
     4     8     9   ar
     5     9    10   ar
     6    10    11   ar
     7    11    12   ar
     8    12    13    1
     9    12    14   ar
    10    14     1    1
    11     1     2   ar
    12     2     3   ar
    13     3     4   ar
    14     4    21    1
    15    21    22    1
    16    22    23    1
    17    23    24    1
    18    24    25    1
    19    25    28    1
    20    28    29    1
    21    29    30    1
    22    30    31    1
    23    25    26    1
    24    26    27    1
    25     4     5   ar
    26     5     6   ar
    27    14    15   ar
    28    15    16    2
    29    15    17   ar
    30    17    18   ar
    31    18     7   ar
    32    17    10   ar
    33     6     1   ar
    34    27    22    1
    35    31    28    1
