@<TRIPOS>MOLECULE
*****
 40 46 0 0 0
SMALL
GASTEIGER

@<TRIPOS>ATOM
      1 C         140.1051  141.8904  161.0538 C.3     1  UNL1        0.1559
      2 N         140.8324  141.2469  159.9105 N.3     1  UNL1       -0.2809
      3 C         141.1182  139.7747  159.9371 C.3     1  UNL1        0.1166
      4 C         140.6769  138.9459  161.1068 C.3     1  UNL1        0.0511
      5 C         139.9496  139.5894  162.2501 C.2     1  UNL1       -0.0037
      6 C         139.6638  141.0617  162.2235 C.2     1  UNL1        0.0784
      7 N         138.9337  141.4148  163.4854 N.2     1  UNL1       -0.2519
      8 C         138.7684  140.1609  164.2918 C.2     1  UNL1        0.0627
      9 C         138.1273  139.9006  165.6227 C.3     1  UNL1        0.0717
     10 C         138.1141  138.5122  166.1900 C.2     1  UNL1       -0.0198
     11 C         138.7419  137.3840  165.4265 C.2     1  UNL1       -0.0042
     12 C         139.3831  137.6442  164.0957 C.2     1  UNL1        0.0006
     13 C         139.3963  139.0327  163.5283 C.2     1  UNL1        0.0111
     14 H         141.7323  141.7202  159.8303 H       1  UNL1        0.1245
     15 C         139.4524  142.9495  161.8919 C.ar    1  UNL1        0.2058
     16 N         138.0764  143.5109  161.6888 N.ar    1  UNL1       -0.0548
     17 O         137.8348  144.5415  162.7517 O.2     1  UNL1       -0.2966
     18 C         139.0615  144.6168  163.6117 C.ar    1  UNL1        0.4165
     19 O         139.2545  145.5179  164.7952 O.3     1  UNL1       -0.4640
     20 N         140.0612  143.6329  163.0803 N.ar    1  UNL1       -0.1557
     21 H         138.5704  146.1031  165.0551 H       1  UNL1        0.2970
     22 C         139.7319  145.3123  157.0497 C.3     1  UNL1        0.1537
     23 N         140.1483  144.6599  158.3347 N.ar    1  UNL1       -0.2476
     24 C         139.6338  143.3558  158.8685 C.ar    1  UNL1        0.0944
     25 C         140.3198  143.0870  160.1751 C.ar    1  UNL1        0.0423
     26 C         141.2581  144.2248  160.4488 C.ar    1  UNL1        0.1194
     27 N         141.1521  145.1969  159.3113 N.ar    1  UNL1       -0.1679
     28 C         141.8455  139.1311  158.7938 C.ar    1  UNL1        0.1319
     29 N         141.7167  137.7010  158.3601 N.ar    1  UNL1       -0.2282
     30 C         142.6208  137.4907  157.1818 C.ar    1  UNL1        0.1171
     31 C         143.3084  138.7909  156.8873 C.ar    1  UNL1        0.0942
     32 N         142.8293  139.8047  157.8836 N.ar    1  UNL1       -0.3385
     33 H         143.1110  140.7468  157.9316 H       1  UNL1        0.1672
     34 C         142.8050  136.2058  156.4301 C.ar    1  UNL1        0.1006
     35 C         142.4450  136.1294  154.9759 C.ar    1  UNL1        0.0230
     36 C         142.6292  134.8446  154.2241 C.ar    1  UNL1        0.0328
     37 C         143.1733  133.6361  154.9265 C.ar    1  UNL1        0.1592
     38 F         143.3574  132.3511  154.1747 F       1  UNL1       -0.2025
     39 C         143.5332  133.7124  156.3807 C.ar    1  UNL1        0.1284
     40 N         143.3491  134.9972  157.1325 N.ar    1  UNL1       -0.2399
@<TRIPOS>BOND
     1    22    23    1
     2    23    24   ar
     3    24    25   ar
     4     1    25    1
     5     1    15    1
     6    15    16   ar
     7    16    17   ar
     8    17    18   ar
     9    18    19    1
    10    18    20   ar
    11     1     2    1
    12     2     3    1
    13     3    28    1
    14    28    29   ar
    15    29    30   ar
    16    30    34    1
    17    34    35   ar
    18    35    36   ar
    19    36    37   ar
    20    37    38    1
    21    37    39   ar
    22    39    40   ar
    23    30    31   ar
    24    31    32   ar
    25     3     4    1
    26     4     5    1
    27     5     6    2
    28     6     7    1
    29     7     8    2
    30     8     9    1
    31     9    10    1
    32    10    11    2
    33    11    12    1
    34    12    13    2
    35    25    26   ar
    36    26    27   ar
    37    27    23   ar
    38     6     1    1
    39    13     8    1
    40    20    15   ar
    41    32    28   ar
    42    13     5    1
    43    40    34   ar
    44    19    21    1
    45     2    14    1
    46    32    33    1
@<TRIPOS>MOLECULE
*****
 40 46 0 0 0
SMALL
GASTEIGER

@<TRIPOS>ATOM
      1 C         141.5239  141.9317  158.9211 C.3     1  UNL1        0.1559
      2 N         141.4329  140.6555  158.1383 N.3     1  UNL1       -0.2809
      3 C         142.1863  139.4410  158.5937 C.3     1  UNL1        0.1166
      4 C         143.0306  139.5028  159.8320 C.3     1  UNL1        0.0511
      5 C         143.1215  140.7790  160.6149 C.2     1  UNL1       -0.0037
      6 C         142.3682  141.9935  160.1594 C.2     1  UNL1        0.0784
      7 N         142.6489  143.1035  161.1285 N.2     1  UNL1       -0.2519
      8 C         143.5758  142.5751  162.1828 C.2     1  UNL1        0.0627
      9 C         144.1915  143.2164  163.3909 C.3     1  UNL1        0.0717
     10 C         145.0993  142.4211  164.2816 C.2     1  UNL1       -0.0198
     11 C         145.3914  140.9845  163.9641 C.2     1  UNL1       -0.0042
     12 C         144.7757  140.3431  162.7561 C.2     1  UNL1        0.0006
     13 C         143.8679  141.1384  161.8654 C.2     1  UNL1        0.0111
     14 H         141.7563  140.8656  157.1940 H       1  UNL1        0.1245
     15 C         141.2939  143.3587  159.3224 C.ar    1  UNL1        0.2058
     16 N         142.1633  144.5268  158.9627 N.ar    1  UNL1       -0.0548
     17 O         141.5607  145.7581  159.5718 O.2     1  UNL1       -0.2966
     18 C         140.3189  145.3508  160.3079 C.ar    1  UNL1        0.4165
     19 O         139.4028  146.2659  161.0652 O.3     1  UNL1       -0.4640
     20 N         140.1539  143.8679  160.1537 N.ar    1  UNL1       -0.1557
     21 H         139.5870  147.1836  161.1072 H       1  UNL1        0.2970
     22 C         137.1484  142.9010  156.1289 C.3     1  UNL1        0.1537
     23 N         138.5885  142.8111  156.5387 N.ar    1  UNL1       -0.2476
     24 C         139.1034  142.2612  157.8359 C.ar    1  UNL1        0.0944
     25 C         140.5997  142.3656  157.8222 C.ar    1  UNL1        0.0423
     26 C         141.0096  142.9799  156.5166 C.ar    1  UNL1        0.1194
     27 N         139.7666  143.2553  155.7233 N.ar    1  UNL1       -0.1679
     28 C         142.0954  138.1647  157.8109 C.ar    1  UNL1        0.1319
     29 N         143.0273  136.9945  157.9212 N.ar    1  UNL1       -0.2282
     30 C         142.5645  135.9411  156.9588 C.ar    1  UNL1        0.1171
     31 C         141.3466  136.4602  156.2537 C.ar    1  UNL1        0.0942
     32 N         141.0567  137.8345  156.7803 N.ar    1  UNL1       -0.3385
     33 H         140.3149  138.4174  156.4990 H       1  UNL1        0.1672
     34 C         143.2069  134.6033  156.7400 C.ar    1  UNL1        0.1006
     35 C         143.0526  133.9039  155.4220 C.ar    1  UNL1        0.0230
     36 C         143.6949  132.5662  155.2031 C.ar    1  UNL1        0.0328
     37 C         144.4916  131.9280  156.3022 C.ar    1  UNL1        0.1592
     38 F         145.1340  130.5902  156.0833 F       1  UNL1       -0.2025
     39 C         144.6459  132.6274  157.6201 C.ar    1  UNL1        0.1284
     40 N         144.0036  133.9651  157.8390 N.ar    1  UNL1       -0.2399
@<TRIPOS>BOND
     1    22    23    1
     2    23    24   ar
     3    24    25   ar
     4     1    25    1
     5     1    15    1
     6    15    16   ar
     7    16    17   ar
     8    17    18   ar
     9    18    19    1
    10    18    20   ar
    11     1     2    1
    12     2     3    1
    13     3    28    1
    14    28    29   ar
    15    29    30   ar
    16    30    34    1
    17    34    35   ar
    18    35    36   ar
    19    36    37   ar
    20    37    38    1
    21    37    39   ar
    22    39    40   ar
    23    30    31   ar
    24    31    32   ar
    25     3     4    1
    26     4     5    1
    27     5     6    2
    28     6     7    1
    29     7     8    2
    30     8     9    1
    31     9    10    1
    32    10    11    2
    33    11    12    1
    34    12    13    2
    35    25    26   ar
    36    26    27   ar
    37    27    23   ar
    38     6     1    1
    39    13     8    1
    40    20    15   ar
    41    32    28   ar
    42    13     5    1
    43    40    34   ar
    44    19    21    1
    45     2    14    1
    46    32    33    1
@<TRIPOS>MOLECULE
*****
 40 46 0 0 0
SMALL
GASTEIGER

@<TRIPOS>ATOM
      1 C         140.7387  141.1980  159.7987 C.3     1  UNL1        0.1559
      2 N         141.0788  140.1131  158.8203 N.3     1  UNL1       -0.2809
      3 C         142.3854  139.3850  158.9320 C.3     1  UNL1        0.1166
      4 C         143.3521  139.7419  160.0221 C.3     1  UNL1        0.0511
      5 C         143.0121  140.8268  161.0005 C.2     1  UNL1       -0.0037
      6 C         141.7054  141.5549  160.8888 C.2     1  UNL1        0.0784
      7 N         141.6457  142.5715  161.9901 N.2     1  UNL1       -0.2519
      8 C         142.9155  142.4718  162.7824 C.2     1  UNL1        0.0627
      9 C         143.4118  143.2236  163.9817 C.3     1  UNL1        0.0717
     10 C         144.7527  142.8970  164.5695 C.2     1  UNL1       -0.0198
     11 C         145.5971  141.8187  163.9578 C.2     1  UNL1       -0.0042
     12 C         145.1008  141.0669  162.7585 C.2     1  UNL1        0.0006
     13 C         143.7600  141.3935  162.1708 C.2     1  UNL1        0.0111
     14 H         141.0555  140.5356  157.8923 H       1  UNL1        0.1245
     15 C         139.9703  142.2909  160.4809 C.ar    1  UNL1        0.2058
     16 N         140.1207  143.7623  160.2318 N.ar    1  UNL1       -0.0548
     17 O         139.1599  144.4849  161.1289 O.2     1  UNL1       -0.2966
     18 C         138.4157  143.4599  161.9324 C.ar    1  UNL1        0.4165
     19 O         137.3566  143.7416  162.9566 O.3     1  UNL1       -0.4640
     20 N         138.9166  142.1039  161.5319 N.ar    1  UNL1       -0.1557
     21 H         137.1072  144.6256  163.1418 H       1  UNL1        0.2970
     22 C         137.0904  142.6871  156.2840 C.3     1  UNL1        0.1537
     23 N         137.8282  141.9051  157.3301 N.ar    1  UNL1       -0.2476
     24 C         139.1382  142.2851  157.9544 C.ar    1  UNL1        0.0944
     25 C         139.5052  141.2207  158.9456 C.ar    1  UNL1        0.0423
     26 C         138.4221  140.1830  158.9339 C.ar    1  UNL1        0.1194
     27 N         137.3857  140.6060  157.9354 N.ar    1  UNL1       -0.1679
     28 C         142.7255  138.3000  157.9536 C.ar    1  UNL1        0.1319
     29 N         142.3269  136.8581  158.0625 N.ar    1  UNL1       -0.2282
     30 C         142.8789  136.1334  156.8707 C.ar    1  UNL1        0.1171
     31 C         143.6187  137.1275  156.0254 C.ar    1  UNL1        0.0942
     32 N         143.5239  138.4666  156.6947 N.ar    1  UNL1       -0.3385
     33 H         143.9166  139.3071  156.3655 H       1  UNL1        0.1672
     34 C         142.7192  134.6713  156.5761 C.ar    1  UNL1        0.1006
     35 C         143.5875  133.6664  157.2736 C.ar    1  UNL1        0.0230
     36 C         143.4278  132.2044  156.9790 C.ar    1  UNL1        0.0328
     37 C         142.3999  131.7471  155.9869 C.ar    1  UNL1        0.1592
     38 F         142.2402  130.2850  155.6923 F       1  UNL1       -0.2025
     39 C         141.5316  132.7520  155.2894 C.ar    1  UNL1        0.1284
     40 N         141.6913  134.2140  155.5840 N.ar    1  UNL1       -0.2399
@<TRIPOS>BOND
     1    22    23    1
     2    23    24   ar
     3    24    25   ar
     4     1    25    1
     5     1    15    1
     6    15    16   ar
     7    16    17   ar
     8    17    18   ar
     9    18    19    1
    10    18    20   ar
    11     1     2    1
    12     2     3    1
    13     3    28    1
    14    28    29   ar
    15    29    30   ar
    16    30    34    1
    17    34    35   ar
    18    35    36   ar
    19    36    37   ar
    20    37    38    1
    21    37    39   ar
    22    39    40   ar
    23    30    31   ar
    24    31    32   ar
    25     3     4    1
    26     4     5    1
    27     5     6    2
    28     6     7    1
    29     7     8    2
    30     8     9    1
    31     9    10    1
    32    10    11    2
    33    11    12    1
    34    12    13    2
    35    25    26   ar
    36    26    27   ar
    37    27    23   ar
    38     6     1    1
    39    13     8    1
    40    20    15   ar
    41    32    28   ar
    42    13     5    1
    43    40    34   ar
    44    19    21    1
    45     2    14    1
    46    32    33    1
@<TRIPOS>MOLECULE
*****
 40 46 0 0 0
SMALL
GASTEIGER

@<TRIPOS>ATOM
      1 C         141.4078  141.0483  159.8655 C.3     1  UNL1        0.1559
      2 N         140.8453  141.9267  158.7876 N.3     1  UNL1       -0.2809
      3 C         140.9405  143.4186  158.9100 C.3     1  UNL1        0.1166
      4 C         141.5981  144.0322  160.1104 C.3     1  UNL1        0.0511
      5 C         142.1606  143.1539  161.1884 C.2     1  UNL1       -0.0037
      6 C         142.0655  141.6619  161.0660 C.2     1  UNL1        0.0784
      7 N         142.7060  141.0555  162.2792 N.2     1  UNL1       -0.2519
      8 C         143.1971  142.1727  163.1514 C.2     1  UNL1        0.0627
      9 C         143.9076  142.1766  164.4724 C.3     1  UNL1        0.0717
     10 C         144.2811  143.4773  165.1193 C.2     1  UNL1       -0.0198
     11 C         143.9440  144.7742  164.4451 C.2     1  UNL1       -0.0042
     12 C         143.2335  144.7703  163.1241 C.2     1  UNL1        0.0006
     13 C         142.8600  143.4695  162.4773 C.2     1  UNL1        0.0111
     14 H         139.8537  141.7002  158.7107 H       1  UNL1        0.1245
     15 C         141.7878  139.8071  160.6174 C.ar    1  UNL1        0.2058
     16 N         143.1451  139.1691  160.6372 N.ar    1  UNL1       -0.0548
     17 O         143.0732  137.9538  161.5135 O.2     1  UNL1       -0.2966
     18 C         141.6714  137.8407  162.0351 C.ar    1  UNL1        0.4165
     19 O         141.1547  136.7701  162.9500 O.3     1  UNL1       -0.4640
     20 N         140.8769  138.9862  161.4813 N.ar    1  UNL1       -0.1557
     21 H         141.7277  136.0906  163.2465 H       1  UNL1        0.2970
     22 C         141.1699  137.2239  156.2326 C.3     1  UNL1        0.1537
     23 N         140.7727  138.2458  157.2564 N.ar    1  UNL1       -0.2476
     24 C         141.7052  139.1464  158.0110 C.ar    1  UNL1        0.0944
     25 C         140.8821  140.0037  158.9262 C.ar    1  UNL1        0.0423
     26 C         139.4410  139.6328  158.7373 C.ar    1  UNL1        0.1194
     27 N         139.3734  138.5464  157.7052 N.ar    1  UNL1       -0.1679
     28 C         140.3779  144.2971  157.8320 C.ar    1  UNL1        0.1319
     29 N         140.2027  145.7848  157.9090 N.ar    1  UNL1       -0.2282
     30 C         139.6084  146.2492  156.6124 C.ar    1  UNL1        0.1171
     31 C         139.4164  145.0485  155.7341 C.ar    1  UNL1        0.0942
     32 N         139.8920  143.8420  156.4879 N.ar    1  UNL1       -0.3385
     33 H         139.8862  142.9143  156.1583 H       1  UNL1        0.1672
     34 C         139.2662  147.6657  156.2566 C.ar    1  UNL1        0.1006
     35 C         138.5865  148.5480  157.2613 C.ar    1  UNL1        0.0230
     36 C         138.2443  149.9645  156.9055 C.ar    1  UNL1        0.0328
     37 C         138.5818  150.4985  155.5451 C.ar    1  UNL1        0.1592
     38 F         138.2396  151.9150  155.1893 F       1  UNL1       -0.2025
     39 C         139.2615  149.6161  154.5404 C.ar    1  UNL1        0.1284
     40 N         139.6037  148.1997  154.8961 N.ar    1  UNL1       -0.2399
@<TRIPOS>BOND
     1    22    23    1
     2    23    24   ar
     3    24    25   ar
     4     1    25    1
     5     1    15    1
     6    15    16   ar
     7    16    17   ar
     8    17    18   ar
     9    18    19    1
    10    18    20   ar
    11     1     2    1
    12     2     3    1
    13     3    28    1
    14    28    29   ar
    15    29    30   ar
    16    30    34    1
    17    34    35   ar
    18    35    36   ar
    19    36    37   ar
    20    37    38    1
    21    37    39   ar
    22    39    40   ar
    23    30    31   ar
    24    31    32   ar
    25     3     4    1
    26     4     5    1
    27     5     6    2
    28     6     7    1
    29     7     8    2
    30     8     9    1
    31     9    10    1
    32    10    11    2
    33    11    12    1
    34    12    13    2
    35    25    26   ar
    36    26    27   ar
    37    27    23   ar
    38     6     1    1
    39    13     8    1
    40    20    15   ar
    41    32    28   ar
    42    13     5    1
    43    40    34   ar
    44    19    21    1
    45     2    14    1
    46    32    33    1
@<TRIPOS>MOLECULE
*****
 40 46 0 0 0
SMALL
GASTEIGER

@<TRIPOS>ATOM
      1 C         142.5599  142.5912  160.0787 C.3     1  UNL1        0.1559
      2 N         142.0207  143.2391  158.8380 N.3     1  UNL1       -0.2809
      3 C         140.8266  144.1431  158.9224 C.3     1  UNL1        0.1166
      4 C         140.1719  144.3991  160.2474 C.3     1  UNL1        0.0511
      5 C         140.7111  143.7512  161.4881 C.2     1  UNL1       -0.0037
      6 C         141.9052  142.8472  161.4038 C.2     1  UNL1        0.0784
      7 N         142.2107  142.3527  162.7865 N.2     1  UNL1       -0.2519
      8 C         141.2055  142.9510  163.7255 C.2     1  UNL1        0.0627
      9 C         141.0144  142.8204  165.2075 C.3     1  UNL1        0.0717
     10 C         139.8965  143.5542  165.8870 C.2     1  UNL1       -0.0198
     11 C         138.9697  144.4185  165.0845 C.2     1  UNL1       -0.0042
     12 C         139.1608  144.5491  163.6025 C.2     1  UNL1        0.0006
     13 C         140.2787  143.8153  162.9230 C.2     1  UNL1        0.0111
     14 H         141.7750  142.4860  158.1955 H       1  UNL1        0.1245
     15 C         143.4317  141.7532  160.9664 C.ar    1  UNL1        0.2058
     16 N         144.7171  142.1888  161.6050 N.ar    1  UNL1       -0.0548
     17 O         145.2509  141.0373  162.4045 O.2     1  UNL1       -0.2966
     18 C         144.2954  139.8901  162.2599 C.ar    1  UNL1        0.4165
     19 O         144.4390  138.5379  162.8931 O.3     1  UNL1       -0.4640
     20 N         143.1710  140.3326  161.3711 N.ar    1  UNL1       -0.1557
     21 H         145.1793  138.3511  163.4363 H       1  UNL1        0.2970
     22 C         146.5063  142.2112  156.5912 C.3     1  UNL1        0.1537
     23 N         145.3314  141.8694  157.4589 N.ar    1  UNL1       -0.2476
     24 C         144.6311  142.8021  158.4022 C.ar    1  UNL1        0.0944
     25 C         143.5175  142.0442  159.0619 C.ar    1  UNL1        0.0423
     26 C         143.5295  140.6430  158.5264 C.ar    1  UNL1        0.1194
     27 N         144.6506  140.5351  157.5356 N.ar    1  UNL1       -0.1679
     28 C         140.2873  144.7911  157.6816 C.ar    1  UNL1        0.1319
     29 N         140.3827  146.2473  157.3349 N.ar    1  UNL1       -0.2282
     30 C         139.7123  146.4529  156.0088 C.ar    1  UNL1        0.1171
     31 C         139.2026  145.1237  155.5361 C.ar    1  UNL1        0.0942
     32 N         139.5580  144.0966  156.5700 N.ar    1  UNL1       -0.3385
     33 H         139.3493  143.1355  156.5265 H       1  UNL1        0.1672
     34 C         139.5756  147.7585  155.2830 C.ar    1  UNL1        0.1006
     35 C         138.8932  148.9177  155.9467 C.ar    1  UNL1        0.0230
     36 C         138.7565  150.2232  155.2209 C.ar    1  UNL1        0.0328
     37 C         139.3021  150.3695  153.8314 C.ar    1  UNL1        0.1592
     38 F         139.1654  151.6751  153.1055 F       1  UNL1       -0.2025
     39 C         139.9846  149.2103  153.1677 C.ar    1  UNL1        0.1284
     40 N         140.1213  147.9048  153.8935 N.ar    1  UNL1       -0.2399
@<TRIPOS>BOND
     1    22    23    1
     2    23    24   ar
     3    24    25   ar
     4     1    25    1
     5     1    15    1
     6    15    16   ar
     7    16    17   ar
     8    17    18   ar
     9    18    19    1
    10    18    20   ar
    11     1     2    1
    12     2     3    1
    13     3    28    1
    14    28    29   ar
    15    29    30   ar
    16    30    34    1
    17    34    35   ar
    18    35    36   ar
    19    36    37   ar
    20    37    38    1
    21    37    39   ar
    22    39    40   ar
    23    30    31   ar
    24    31    32   ar
    25     3     4    1
    26     4     5    1
    27     5     6    2
    28     6     7    1
    29     7     8    2
    30     8     9    1
    31     9    10    1
    32    10    11    2
    33    11    12    1
    34    12    13    2
    35    25    26   ar
    36    26    27   ar
    37    27    23   ar
    38     6     1    1
    39    13     8    1
    40    20    15   ar
    41    32    28   ar
    42    13     5    1
    43    40    34   ar
    44    19    21    1
    45     2    14    1
    46    32    33    1
@<TRIPOS>MOLECULE
*****
 40 46 0 0 0
SMALL
GASTEIGER

@<TRIPOS>ATOM
      1 C         141.7460  142.1846  161.3815 C.3     1  UNL1        0.1559
      2 N         141.9444  141.4245  160.1037 N.3     1  UNL1       -0.2809
      3 C         142.4423  140.0101  160.1420 C.3     1  UNL1        0.1166
      4 C         142.7418  139.3558  161.4581 C.3     1  UNL1        0.0511
      5 C         142.5434  140.1159  162.7359 C.2     1  UNL1       -0.0037
      6 C         142.0455  141.5303  162.6976 C.2     1  UNL1        0.0784
      7 N         141.9472  142.0255  164.1101 N.2     1  UNL1       -0.2519
      8 C         142.3843  140.9171  165.0214 C.2     1  UNL1        0.0627
      9 C         142.4944  140.8300  166.5148 C.3     1  UNL1        0.0717
     10 C         142.9730  139.5627  167.1588 C.2     1  UNL1       -0.0198
     11 C         143.3415  138.3825  166.3095 C.2     1  UNL1       -0.0042
     12 C         143.2314  138.4696  164.8161 C.2     1  UNL1        0.0006
     13 C         142.7528  139.7369  164.1721 C.2     1  UNL1        0.0111
     14 H         142.6117  141.9566  159.5451 H       1  UNL1        0.1245
     15 C         141.4021  143.3074  162.3149 C.ar    1  UNL1        0.2058
     16 N         142.2866  144.4681  162.6615 N.ar    1  UNL1       -0.0548
     17 O         141.5444  145.3446  163.6264 O.2     1  UNL1       -0.2966
     18 C         140.2012  144.7255  163.8761 C.ar    1  UNL1        0.4165
     19 O         139.1334  145.2699  164.7780 O.3     1  UNL1       -0.4640
     20 N         140.1132  143.4664  163.0655 N.ar    1  UNL1       -0.1557
     21 H         139.2784  146.0679  165.2472 H       1  UNL1        0.2970
     22 C         141.8999  145.8814  157.6143 C.3     1  UNL1        0.1537
     23 N         141.3977  144.9281  158.6580 N.ar    1  UNL1       -0.2476
     24 C         142.2385  143.9919  159.4746 C.ar    1  UNL1        0.0944
     25 C         141.3270  143.2289  160.3896 C.ar    1  UNL1        0.0423
     26 C         139.9231  143.6935  160.1384 C.ar    1  UNL1        0.1194
     27 N         139.9668  144.7437  159.0682 N.ar    1  UNL1       -0.1679
     28 C         142.6407  139.2499  158.8641 C.ar    1  UNL1        0.1319
     29 N         142.7058  137.7577  158.7271 N.ar    1  UNL1       -0.2282
     30 C         142.9141  137.4340  157.2773 C.ar    1  UNL1        0.1171
     31 C         142.9778  138.7263  156.5184 C.ar    1  UNL1        0.0942
     32 N         142.8088  139.8486  157.4991 N.ar    1  UNL1       -0.3385
     33 H         142.8084  140.8094  157.2845 H       1  UNL1        0.1672
     34 C         143.0372  136.0594  156.6896 C.ar    1  UNL1        0.1006
     35 C         142.8475  135.8540  155.2159 C.ar    1  UNL1        0.0230
     36 C         142.9705  134.4795  154.6282 C.ar    1  UNL1        0.0328
     37 C         143.2833  133.3103  155.5142 C.ar    1  UNL1        0.1592
     38 F         143.4064  131.9356  154.9265 F       1  UNL1       -0.2025
     39 C         143.4731  133.5156  156.9879 C.ar    1  UNL1        0.1284
     40 N         143.3500  134.8902  157.5756 N.ar    1  UNL1       -0.2399
@<TRIPOS>BOND
     1    22    23    1
     2    23    24   ar
     3    24    25   ar
     4     1    25    1
     5     1    15    1
     6    15    16   ar
     7    16    17   ar
     8    17    18   ar
     9    18    19    1
    10    18    20   ar
    11     1     2    1
    12     2     3    1
    13     3    28    1
    14    28    29   ar
    15    29    30   ar
    16    30    34    1
    17    34    35   ar
    18    35    36   ar
    19    36    37   ar
    20    37    38    1
    21    37    39   ar
    22    39    40   ar
    23    30    31   ar
    24    31    32   ar
    25     3     4    1
    26     4     5    1
    27     5     6    2
    28     6     7    1
    29     7     8    2
    30     8     9    1
    31     9    10    1
    32    10    11    2
    33    11    12    1
    34    12    13    2
    35    25    26   ar
    36    26    27   ar
    37    27    23   ar
    38     6     1    1
    39    13     8    1
    40    20    15   ar
    41    32    28   ar
    42    13     5    1
    43    40    34   ar
    44    19    21    1
    45     2    14    1
    46    32    33    1
@<TRIPOS>MOLECULE
*****
 40 46 0 0 0
SMALL
GASTEIGER

@<TRIPOS>ATOM
      1 C         141.2368  140.9849  160.3997 C.3     1  UNL1        0.1559
      2 N         141.0332  141.7296  159.1136 N.3     1  UNL1       -0.2809
      3 C         140.4321  143.1037  159.1299 C.3     1  UNL1        0.1166
      4 C         140.0345  143.7332  160.4321 C.3     1  UNL1        0.0511
      5 C         140.2382  142.9885  161.7181 C.2     1  UNL1       -0.0037
      6 C         140.8393  141.6143  161.7019 C.2     1  UNL1        0.0784
      7 N         140.9186  141.1264  163.1181 N.2     1  UNL1       -0.2519
      8 C         140.3664  142.1989  164.0096 C.2     1  UNL1        0.0627
      9 C         140.1923  142.2764  165.4974 C.3     1  UNL1        0.0717
     10 C         139.5976  143.5046  166.1199 C.2     1  UNL1       -0.0198
     11 C         139.1770  144.6555  165.2547 C.2     1  UNL1       -0.0042
     12 C         139.3512  144.5781  163.7669 C.2     1  UNL1        0.0006
     13 C         139.9459  143.3498  163.1443 C.2     1  UNL1        0.0111
     14 H         140.4288  141.1506  158.5306 H       1  UNL1        0.1245
     15 C         141.6254  139.8894  161.3479 C.ar    1  UNL1        0.2058
     16 N         142.9054  139.8093  162.1256 N.ar    1  UNL1       -0.0548
     17 O         142.8732  138.5520  162.9432 O.2     1  UNL1       -0.2966
     18 C         141.5731  137.8552  162.6707 C.ar    1  UNL1        0.4165
     19 O         141.1232  136.5594  163.2777 O.3     1  UNL1       -0.4640
     20 N         140.8019  138.6818  161.6848 N.ar    1  UNL1       -0.1557
     21 H         141.6752  136.1113  163.8880 H       1  UNL1        0.2970
     22 C         141.4963  137.1277  156.8030 C.3     1  UNL1        0.1537
     23 N         141.8886  138.2020  157.7736 N.ar    1  UNL1       -0.2476
     24 C         140.9494  139.0272  158.6024 C.ar    1  UNL1        0.0944
     25 C         141.7693  139.9750  159.4268 C.ar    1  UNL1        0.0423
     26 C         143.2153  139.7355  159.1074 C.ar    1  UNL1        0.1194
     27 N         143.2890  138.6398  158.0856 N.ar    1  UNL1       -0.1679
     28 C         140.2284  143.8486  157.8438 C.ar    1  UNL1        0.1319
     29 N         140.0491  145.3310  157.7025 N.ar    1  UNL1       -0.2282
     30 C         139.8782  145.6403  156.2447 C.ar    1  UNL1        0.1171
     31 C         139.9519  144.3490  155.4851 C.ar    1  UNL1        0.0942
     32 N         140.1684  143.2416  156.4734 N.ar    1  UNL1       -0.3385
     33 H         140.2557  142.2845  156.2601 H       1  UNL1        0.1672
     34 C         139.6701  147.0020  155.6507 C.ar    1  UNL1        0.1006
     35 C         140.2579  147.3338  154.3112 C.ar    1  UNL1        0.0230
     36 C         140.0499  148.6953  153.7173 C.ar    1  UNL1        0.0328
     37 C         139.2539  149.7251  154.4629 C.ar    1  UNL1        0.1592
     38 F         139.0458  151.0868  153.8690 F       1  UNL1       -0.2025
     39 C         138.6661  149.3934  155.8024 C.ar    1  UNL1        0.1284
     40 N         138.8741  148.0318  156.3963 N.ar    1  UNL1       -0.2399
@<TRIPOS>BOND
     1    22    23    1
     2    23    24   ar
     3    24    25   ar
     4     1    25    1
     5     1    15    1
     6    15    16   ar
     7    16    17   ar
     8    17    18   ar
     9    18    19    1
    10    18    20   ar
    11     1     2    1
    12     2     3    1
    13     3    28    1
    14    28    29   ar
    15    29    30   ar
    16    30    34    1
    17    34    35   ar
    18    35    36   ar
    19    36    37   ar
    20    37    38    1
    21    37    39   ar
    22    39    40   ar
    23    30    31   ar
    24    31    32   ar
    25     3     4    1
    26     4     5    1
    27     5     6    2
    28     6     7    1
    29     7     8    2
    30     8     9    1
    31     9    10    1
    32    10    11    2
    33    11    12    1
    34    12    13    2
    35    25    26   ar
    36    26    27   ar
    37    27    23   ar
    38     6     1    1
    39    13     8    1
    40    20    15   ar
    41    32    28   ar
    42    13     5    1
    43    40    34   ar
    44    19    21    1
    45     2    14    1
    46    32    33    1
@<TRIPOS>MOLECULE
*****
 40 46 0 0 0
SMALL
GASTEIGER

@<TRIPOS>ATOM
      1 C         141.9473  142.1023  160.1209 C.3     1  UNL1        0.1559
      2 N         141.1659  141.6234  158.9335 N.3     1  UNL1       -0.2809
      3 C         139.6670  141.6783  158.9504 C.3     1  UNL1        0.1166
      4 C         138.9496  142.2122  160.1547 C.3     1  UNL1        0.0511
      5 C         139.7310  142.6911  161.3421 C.2     1  UNL1       -0.0037
      6 C         141.2299  142.6362  161.3252 C.2     1  UNL1        0.0784
      7 N         141.7282  143.1753  162.6333 N.2     1  UNL1       -0.2519
      8 C         140.5373  143.5635  163.4586 C.2     1  UNL1        0.0627
      9 C         140.4174  144.1507  164.8336 C.3     1  UNL1        0.0717
     10 C         139.0632  144.4388  165.4106 C.2     1  UNL1       -0.0198
     11 C         137.8288  144.1395  164.6126 C.2     1  UNL1       -0.0042
     12 C         137.9487  143.5523  163.2376 C.2     1  UNL1        0.0006
     13 C         139.3030  143.2642  162.6606 C.2     1  UNL1        0.0111
     14 H         141.4231  140.6474  158.7859 H       1  UNL1        0.1245
     15 C         143.1193  142.4361  160.9957 C.ar    1  UNL1        0.2058
     16 N         143.6214  143.8143  161.3090 N.ar    1  UNL1       -0.0548
     17 O         144.8074  143.6801  162.2176 O.2     1  UNL1       -0.2966
     18 C         145.0381  142.2190  162.4659 C.ar    1  UNL1        0.4165
     19 O         146.1219  141.6301  163.3195 O.3     1  UNL1       -0.4640
     20 N         143.9948  141.4500  161.7107 N.ar    1  UNL1       -0.1557
     21 H         146.7321  142.1917  163.7556 H       1  UNL1        0.2970
     22 C         146.1001  142.2691  156.8641 C.3     1  UNL1        0.1537
     23 N         144.9806  141.7610  157.7235 N.ar    1  UNL1       -0.2476
     24 C         144.0215  142.6035  158.5111 C.ar    1  UNL1        0.0944
     25 C         143.0718  141.6843  159.2205 C.ar    1  UNL1        0.0423
     26 C         143.4440  140.2738  158.8713 C.ar    1  UNL1        0.1194
     27 N         144.6238  140.3212  157.9461 N.ar    1  UNL1       -0.1679
     28 C         138.8855  141.1994  157.7630 C.ar    1  UNL1        0.1319
     29 N         137.5707  141.7479  157.2934 N.ar    1  UNL1       -0.2282
     30 C         137.1542  140.9755  156.0769 C.ar    1  UNL1        0.1171
     31 C         138.2115  139.9496  155.7947 C.ar    1  UNL1        0.0942
     32 N         139.2815  140.0880  156.8368 N.ar    1  UNL1       -0.3385
     33 H         140.1000  139.5447  156.9015 H       1  UNL1        0.1672
     34 C         135.9004  141.1911  155.2821 C.ar    1  UNL1        0.1006
     35 C         135.9861  141.6340  153.8516 C.ar    1  UNL1        0.0230
     36 C         134.7324  141.8496  153.0568 C.ar    1  UNL1        0.0328
     37 C         133.3930  141.6223  153.6926 C.ar    1  UNL1        0.1592
     38 F         132.1392  141.8379  152.8978 F       1  UNL1       -0.2025
     39 C         133.3073  141.1794  155.1231 C.ar    1  UNL1        0.1284
     40 N         134.5610  140.9638  155.9179 N.ar    1  UNL1       -0.2399
@<TRIPOS>BOND
     1    22    23    1
     2    23    24   ar
     3    24    25   ar
     4     1    25    1
     5     1    15    1
     6    15    16   ar
     7    16    17   ar
     8    17    18   ar
     9    18    19    1
    10    18    20   ar
    11     1     2    1
    12     2     3    1
    13     3    28    1
    14    28    29   ar
    15    29    30   ar
    16    30    34    1
    17    34    35   ar
    18    35    36   ar
    19    36    37   ar
    20    37    38    1
    21    37    39   ar
    22    39    40   ar
    23    30    31   ar
    24    31    32   ar
    25     3     4    1
    26     4     5    1
    27     5     6    2
    28     6     7    1
    29     7     8    2
    30     8     9    1
    31     9    10    1
    32    10    11    2
    33    11    12    1
    34    12    13    2
    35    25    26   ar
    36    26    27   ar
    37    27    23   ar
    38     6     1    1
    39    13     8    1
    40    20    15   ar
    41    32    28   ar
    42    13     5    1
    43    40    34   ar
    44    19    21    1
    45     2    14    1
    46    32    33    1
@<TRIPOS>MOLECULE
*****
 40 46 0 0 0
SMALL
GASTEIGER

@<TRIPOS>ATOM
      1 C         142.5208  139.7886  159.6071 C.3     1  UNL1        0.1559
      2 N         143.2103  140.2985  158.3764 N.3     1  UNL1       -0.2809
      3 C         144.0996  141.5035  158.4598 C.3     1  UNL1        0.1166
      4 C         144.2996  142.1986  159.7739 C.3     1  UNL1        0.0511
      5 C         143.6101  141.6887  161.0046 C.2     1  UNL1       -0.0037
      6 C         142.7208  140.4837  160.9212 C.2     1  UNL1        0.0784
      7 N         142.1772  140.2130  162.2928 N.2     1  UNL1       -0.2519
      8 C         142.7306  141.2507  163.2239 C.2     1  UNL1        0.0627
      9 C         142.5424  141.4830  164.6938 C.3     1  UNL1        0.0717
     10 C         143.2400  142.6272  165.3675 C.2     1  UNL1       -0.0198
     11 C         144.1256  143.5393  164.5714 C.2     1  UNL1       -0.0042
     12 C         144.3137  143.3070  163.1015 C.2     1  UNL1        0.0006
     13 C         143.6162  142.1627  162.4277 C.2     1  UNL1        0.0111
     14 H         142.4797  140.5180  157.6992 H       1  UNL1        0.1245
     15 C         141.6578  138.9342  160.4877 C.ar    1  UNL1        0.2058
     16 N         142.1308  137.8152  161.3673 N.ar    1  UNL1       -0.0548
     17 O         140.9356  137.2383  162.0665 O.2     1  UNL1       -0.2966
     18 C         139.7240  138.0009  161.6188 C.ar    1  UNL1        0.4165
     19 O         138.3136  137.7580  162.0681 O.3     1  UNL1       -0.4640
     20 N         140.1704  139.0491  160.6430 N.ar    1  UNL1       -0.1557
     21 H         138.1289  137.0767  162.6844 H       1  UNL1        0.2970
     22 C         142.2117  135.5919  156.4175 C.3     1  UNL1        0.1537
     23 N         141.8790  136.8678  157.1327 N.ar    1  UNL1       -0.2476
     24 C         142.7418  137.5621  158.1446 C.ar    1  UNL1        0.0944
     25 C         142.0212  138.7968  158.5988 C.ar    1  UNL1        0.0423
     26 C         140.7132  138.8656  157.8677 C.ar    1  UNL1        0.1194
     27 N         140.6254  137.6734  156.9616 N.ar    1  UNL1       -0.1679
     28 C         144.7891  142.0135  157.2291 C.ar    1  UNL1        0.1319
     29 N         146.2476  141.8668  156.9109 N.ar    1  UNL1       -0.2282
     30 C         146.5011  142.5223  155.5857 C.ar    1  UNL1        0.1171
     31 C         145.1992  143.0741  155.0849 C.ar    1  UNL1        0.0942
     32 N         144.1412  142.7596  156.1006 N.ar    1  UNL1       -0.3385
     33 H         143.1887  143.0006  156.0376 H       1  UNL1        0.1672
     34 C         147.8241  142.6105  154.8844 C.ar    1  UNL1        0.1006
     35 C         148.9750  141.7660  155.3452 C.ar    1  UNL1        0.0230
     36 C         150.2980  141.8542  154.6439 C.ar    1  UNL1        0.0328
     37 C         150.4702  142.7869  153.4819 C.ar    1  UNL1        0.1592
     38 F         151.7933  142.8751  152.7806 F       1  UNL1       -0.2025
     39 C         149.3193  143.6314  153.0211 C.ar    1  UNL1        0.1284
     40 N         147.9963  143.5432  153.7223 N.ar    1  UNL1       -0.2399
@<TRIPOS>BOND
     1    22    23    1
     2    23    24   ar
     3    24    25   ar
     4     1    25    1
     5     1    15    1
     6    15    16   ar
     7    16    17   ar
     8    17    18   ar
     9    18    19    1
    10    18    20   ar
    11     1     2    1
    12     2     3    1
    13     3    28    1
    14    28    29   ar
    15    29    30   ar
    16    30    34    1
    17    34    35   ar
    18    35    36   ar
    19    36    37   ar
    20    37    38    1
    21    37    39   ar
    22    39    40   ar
    23    30    31   ar
    24    31    32   ar
    25     3     4    1
    26     4     5    1
    27     5     6    2
    28     6     7    1
    29     7     8    2
    30     8     9    1
    31     9    10    1
    32    10    11    2
    33    11    12    1
    34    12    13    2
    35    25    26   ar
    36    26    27   ar
    37    27    23   ar
    38     6     1    1
    39    13     8    1
    40    20    15   ar
    41    32    28   ar
    42    13     5    1
    43    40    34   ar
    44    19    21    1
    45     2    14    1
    46    32    33    1
