@<TRIPOS>MOLECULE
*****
 27 29 0 0 0
SMALL
GASTEIGER

@<TRIPOS>ATOM
      1 N         140.0270  141.7399  165.0774 N.pl3   1  UNL1       -0.2854
      2 F         144.7132  139.9080  161.8088 F       1  UNL1       -0.2042
      3 C         143.5417  140.3659  162.6260 C.ar    1  UNL1        0.1402
      4 C         143.5410  140.1678  164.1128 C.ar    1  UNL1        0.0309
      5 C         142.3694  140.6258  164.9299 C.ar    1  UNL1        0.0171
      6 C         141.1986  141.2819  164.2602 C.ar    1  UNL1        0.0518
      7 C         141.1992  141.4800  162.7734 C.ar    1  UNL1        0.0171
      8 C         142.3708  141.0220  161.9563 C.ar    1  UNL1        0.0309
      9 C         140.0558  141.6050  166.5710 C.ar    1  UNL1        0.0518
     10 C         140.5393  142.7447  167.4178 C.ar    1  UNL1        0.0171
     11 C         140.5680  142.6098  168.9115 C.ar    1  UNL1        0.0309
     12 C         140.1133  141.3351  169.5583 C.ar    1  UNL1        0.1402
     13 F         140.1420  141.2001  171.0520 F       1  UNL1       -0.2042
     14 C         139.6298  140.1953  168.7114 C.ar    1  UNL1        0.0309
     15 C         139.6010  140.3302  167.2178 C.ar    1  UNL1        0.0171
     16 C         138.8267  142.3327  164.4009 C.3     1  UNL1        0.1126
     17 C         137.5507  141.5489  164.3150 C.3     1  UNL1        0.0907
     18 N         136.9188  141.2886  162.9797 N.3     1  UNL1       -0.2957
     19 H         136.6726  142.1978  162.5882 H       1  UNL1        0.1233
     20 C         137.6828  140.5530  161.9190 C.3     1  UNL1        0.0733
     21 C         137.8040  139.0592  161.9817 C.3     1  UNL1        0.0434
     22 C         138.9598  138.4301  162.7015 C.ar    1  UNL1       -0.0208
     23 C         140.1882  138.0277  161.9404 C.ar    1  UNL1       -0.0042
     24 C         141.3441  137.3985  162.6603 C.ar    1  UNL1       -0.0003
     25 C         141.2715  137.1717  164.1413 C.ar    1  UNL1       -0.0000
     26 C         140.0432  137.5741  164.9024 C.ar    1  UNL1       -0.0003
     27 C         138.8873  138.2032  164.1825 C.ar    1  UNL1       -0.0042
@<TRIPOS>BOND
     1     2     3    1
     2     3     4   ar
     3     4     5   ar
     4     5     6   ar
     5     6     1    1
     6     1    16    1
     7    16    17    1
     8    17    18    1
     9    18    20    1
    10    20    21    1
    11    21    22    1
    12    22    23   ar
    13    23    24   ar
    14    24    25   ar
    15    25    26   ar
    16    26    27   ar
    17     1     9    1
    18     9    10   ar
    19    10    11   ar
    20    11    12   ar
    21    12    13    1
    22    12    14   ar
    23    14    15   ar
    24     6     7   ar
    25     7     8   ar
    26     8     3   ar
    27    27    22   ar
    28    15     9   ar
    29    18    19    1
@<TRIPOS>MOLECULE
*****
 27 29 0 0 0
SMALL
GASTEIGER

@<TRIPOS>ATOM
      1 N         139.6735  141.3335  162.1087 N.pl3   1  UNL1       -0.2854
      2 F         138.4991  136.7673  165.8196 F       1  UNL1       -0.2042
      3 C         138.7927  137.9089  164.8919 C.ar    1  UNL1        0.1402
      4 C         138.8840  137.6697  163.4139 C.ar    1  UNL1        0.0309
      5 C         139.1776  138.8113  162.4862 C.ar    1  UNL1        0.0171
      6 C         139.3799  140.1919  163.0364 C.ar    1  UNL1        0.0518
      7 C         139.2886  140.4311  164.5144 C.ar    1  UNL1        0.0171
      8 C         138.9950  139.2895  165.4421 C.ar    1  UNL1        0.0309
      9 C         141.0932  141.6745  161.7650 C.ar    1  UNL1        0.0518
     10 C         142.2114  140.7922  162.2351 C.ar    1  UNL1        0.0171
     11 C         143.6311  141.1333  161.8914 C.ar    1  UNL1        0.0309
     12 C         143.9326  142.3567  161.0776 C.ar    1  UNL1        0.1402
     13 F         145.3523  142.6978  160.7338 F       1  UNL1       -0.2042
     14 C         142.8144  143.2391  160.6075 C.ar    1  UNL1        0.0309
     15 C         141.3947  142.8980  160.9512 C.ar    1  UNL1        0.0171
     16 C         138.5474  142.1340  161.5246 C.3     1  UNL1        0.1126
     17 C         137.6453  142.9262  162.4237 C.3     1  UNL1        0.0907
     18 N         137.7624  144.4208  162.4755 N.3     1  UNL1       -0.2957
     19 H         137.0317  144.7518  163.1055 H       1  UNL1        0.1233
     20 C         139.0436  145.0575  162.9259 C.3     1  UNL1        0.0733
     21 C         139.6506  144.6718  164.2423 C.3     1  UNL1        0.0434
     22 C         141.1206  144.3884  164.3361 C.ar    1  UNL1       -0.0208
     23 C         142.1062  145.3186  163.6931 C.ar    1  UNL1       -0.0042
     24 C         143.5762  145.0352  163.7870 C.ar    1  UNL1       -0.0003
     25 C         144.0606  143.8217  164.5237 C.ar    1  UNL1       -0.0000
     26 C         143.0749  142.8915  165.1666 C.ar    1  UNL1       -0.0003
     27 C         141.6049  143.1749  165.0728 C.ar    1  UNL1       -0.0042
@<TRIPOS>BOND
     1     2     3    1
     2     3     4   ar
     3     4     5   ar
     4     5     6   ar
     5     6     1    1
     6     1    16    1
     7    16    17    1
     8    17    18    1
     9    18    20    1
    10    20    21    1
    11    21    22    1
    12    22    23   ar
    13    23    24   ar
    14    24    25   ar
    15    25    26   ar
    16    26    27   ar
    17     1     9    1
    18     9    10   ar
    19    10    11   ar
    20    11    12   ar
    21    12    13    1
    22    12    14   ar
    23    14    15   ar
    24     6     7   ar
    25     7     8   ar
    26     8     3   ar
    27    27    22   ar
    28    15     9   ar
    29    18    19    1
@<TRIPOS>MOLECULE
*****
 27 29 0 0 0
SMALL
GASTEIGER

@<TRIPOS>ATOM
      1 N         139.5873  141.3755  162.1817 N.pl3   1  UNL1       -0.2854
      2 F         145.2662  142.7364  160.8042 F       1  UNL1       -0.2042
      3 C         143.8465  142.3962  161.1486 C.ar    1  UNL1        0.1402
      4 C         143.5494  141.2134  162.0219 C.ar    1  UNL1        0.0309
      5 C         142.1297  140.8732  162.3662 C.ar    1  UNL1        0.0171
      6 C         141.0070  141.7157  161.8373 C.ar    1  UNL1        0.0518
      7 C         141.3042  142.8985  160.9640 C.ar    1  UNL1        0.0171
      8 C         142.7239  143.2387  160.6196 C.ar    1  UNL1        0.0309
      9 C         139.2933  140.2309  163.1055 C.ar    1  UNL1        0.0518
     10 C         139.1096  140.4798  164.5732 C.ar    1  UNL1        0.0171
     11 C         138.8156  139.3351  165.4970 C.ar    1  UNL1        0.0309
     12 C         138.7052  137.9416  164.9531 C.ar    1  UNL1        0.1402
     13 F         138.4112  136.7970  165.8769 F       1  UNL1       -0.2042
     14 C         138.8889  137.6927  163.4853 C.ar    1  UNL1        0.0309
     15 C         139.1829  138.8373  162.5615 C.ar    1  UNL1        0.0171
     16 C         138.4616  142.1798  161.6022 C.3     1  UNL1        0.1126
     17 C         137.7476  143.1902  162.4504 C.3     1  UNL1        0.0907
     18 N         138.1113  144.6422  162.3534 N.3     1  UNL1       -0.2957
     19 H         137.2969  145.1713  162.6651 H       1  UNL1        0.1233
     20 C         139.2897  145.1726  163.1150 C.3     1  UNL1        0.0733
     21 C         139.8069  144.4285  164.3102 C.3     1  UNL1        0.0434
     22 C         141.2794  144.1874  164.4642 C.ar    1  UNL1       -0.0208
     23 C         142.2632  145.1156  163.8156 C.ar    1  UNL1       -0.0042
     24 C         143.7357  144.8746  163.9696 C.ar    1  UNL1       -0.0003
     25 C         144.2243  143.7053  164.7723 C.ar    1  UNL1       -0.0000
     26 C         143.2405  142.7772  165.4209 C.ar    1  UNL1       -0.0003
     27 C         141.7681  143.0183  165.2668 C.ar    1  UNL1       -0.0042
@<TRIPOS>BOND
     1     2     3    1
     2     3     4   ar
     3     4     5   ar
     4     5     6   ar
     5     6     1    1
     6     1    16    1
     7    16    17    1
     8    17    18    1
     9    18    20    1
    10    20    21    1
    11    21    22    1
    12    22    23   ar
    13    23    24   ar
    14    24    25   ar
    15    25    26   ar
    16    26    27   ar
    17     1     9    1
    18     9    10   ar
    19    10    11   ar
    20    11    12   ar
    21    12    13    1
    22    12    14   ar
    23    14    15   ar
    24     6     7   ar
    25     7     8   ar
    26     8     3   ar
    27    27    22   ar
    28    15     9   ar
    29    18    19    1
@<TRIPOS>MOLECULE
*****
 27 29 0 0 0
SMALL
GASTEIGER

@<TRIPOS>ATOM
      1 N         142.4596  141.2369  165.1830 N.pl3   1  UNL1       -0.2854
      2 F         143.0175  140.2311  171.0717 F       1  UNL1       -0.2042
      3 C         142.8780  140.4825  169.5995 C.ar    1  UNL1        0.1402
      4 C         142.9857  141.8794  169.0637 C.ar    1  UNL1        0.0309
      5 C         142.8462  142.1309  167.5916 C.ar    1  UNL1        0.0171
      6 C         142.5990  140.9854  166.6552 C.ar    1  UNL1        0.0518
      7 C         142.4914  139.5886  167.1910 C.ar    1  UNL1        0.0171
      8 C         142.6309  139.3371  168.6631 C.ar    1  UNL1        0.0309
      9 C         141.0967  141.3147  164.5612 C.ar    1  UNL1        0.0518
     10 C         139.8727  141.2217  165.4232 C.ar    1  UNL1        0.0171
     11 C         138.5098  141.2994  164.8014 C.ar    1  UNL1        0.0309
     12 C         138.3710  141.4702  163.3176 C.ar    1  UNL1        0.1402
     13 F         137.0082  141.5480  162.6958 F       1  UNL1       -0.2042
     14 C         139.5951  141.5632  162.4556 C.ar    1  UNL1        0.0309
     15 C         140.9579  141.4855  163.0774 C.ar    1  UNL1        0.0171
     16 C         143.6829  141.4106  164.3326 C.3     1  UNL1        0.1126
     17 C         144.4351  140.2075  163.8460 C.3     1  UNL1        0.0907
     18 N         144.6484  140.0003  162.3757 N.3     1  UNL1       -0.2957
     19 H         145.5320  139.5011  162.2738 H       1  UNL1        0.1233
     20 C         143.6311  139.2492  161.5689 C.3     1  UNL1        0.0733
     21 C         143.0999  137.9373  162.0655 C.3     1  UNL1        0.0434
     22 C         141.7348  137.8663  162.6832 C.ar    1  UNL1       -0.0208
     23 C         141.5907  137.6799  164.1646 C.ar    1  UNL1       -0.0042
     24 C         140.2256  137.6089  164.7822 C.ar    1  UNL1       -0.0003
     25 C         139.0046  137.7243  163.9184 C.ar    1  UNL1       -0.0000
     26 C         139.1488  137.9108  162.4371 C.ar    1  UNL1       -0.0003
     27 C         140.5139  137.9817  161.8195 C.ar    1  UNL1       -0.0042
@<TRIPOS>BOND
     1     2     3    1
     2     3     4   ar
     3     4     5   ar
     4     5     6   ar
     5     6     1    1
     6     1    16    1
     7    16    17    1
     8    17    18    1
     9    18    20    1
    10    20    21    1
    11    21    22    1
    12    22    23   ar
    13    23    24   ar
    14    24    25   ar
    15    25    26   ar
    16    26    27   ar
    17     1     9    1
    18     9    10   ar
    19    10    11   ar
    20    11    12   ar
    21    12    13    1
    22    12    14   ar
    23    14    15   ar
    24     6     7   ar
    25     7     8   ar
    26     8     3   ar
    27    27    22   ar
    28    15     9   ar
    29    18    19    1
@<TRIPOS>MOLECULE
*****
 27 29 0 0 0
SMALL
GASTEIGER

@<TRIPOS>ATOM
      1 N         140.8155  139.9463  164.9079 N.pl3   1  UNL1       -0.2854
      2 F         142.2508  144.8830  161.8146 F       1  UNL1       -0.2042
      3 C         141.8920  143.6489  162.5879 C.ar    1  UNL1        0.1402
      4 C         142.1653  143.5810  164.0612 C.ar    1  UNL1        0.0309
      5 C         141.8065  142.3468  164.8345 C.ar    1  UNL1        0.0171
      6 C         141.1743  141.1805  164.1346 C.ar    1  UNL1        0.0518
      7 C         140.9009  141.2484  162.6613 C.ar    1  UNL1        0.0171
      8 C         141.2598  142.4825  161.8880 C.ar    1  UNL1        0.0309
      9 C         141.0265  139.9036  166.3924 C.ar    1  UNL1        0.0518
     10 C         139.9018  140.2560  167.3202 C.ar    1  UNL1        0.0171
     11 C         140.1129  140.2132  168.8048 C.ar    1  UNL1        0.0309
     12 C         141.4485  139.8182  169.3613 C.ar    1  UNL1        0.1402
     13 F         141.6596  139.7754  170.8459 F       1  UNL1       -0.2042
     14 C         142.5732  139.4658  168.4335 C.ar    1  UNL1        0.0309
     15 C         142.3622  139.5085  166.9490 C.ar    1  UNL1        0.0171
     16 C         140.2457  138.7549  164.1969 C.3     1  UNL1        0.1126
     17 C         141.0388  137.4849  164.1072 C.3     1  UNL1        0.0907
     18 N         141.4099  136.9255  162.7657 N.3     1  UNL1       -0.2957
     19 H         140.5729  136.4785  162.3914 H       1  UNL1        0.1233
     20 C         141.9323  137.8341  161.6927 C.3     1  UNL1        0.0733
     21 C         143.4072  138.0765  161.5676 C.3     1  UNL1        0.0434
     22 C         144.0334  139.2582  162.2470 C.ar    1  UNL1       -0.0208
     23 C         144.3396  140.4992  161.4620 C.ar    1  UNL1       -0.0042
     24 C         144.9657  141.6809  162.1414 C.ar    1  UNL1       -0.0003
     25 C         145.2856  141.6216  163.6058 C.ar    1  UNL1       -0.0000
     26 C         144.9794  140.3806  164.3906 C.ar    1  UNL1       -0.0003
     27 C         144.3533  139.1989  163.7113 C.ar    1  UNL1       -0.0042
@<TRIPOS>BOND
     1     2     3    1
     2     3     4   ar
     3     4     5   ar
     4     5     6   ar
     5     6     1    1
     6     1    16    1
     7    16    17    1
     8    17    18    1
     9    18    20    1
    10    20    21    1
    11    21    22    1
    12    22    23   ar
    13    23    24   ar
    14    24    25   ar
    15    25    26   ar
    16    26    27   ar
    17     1     9    1
    18     9    10   ar
    19    10    11   ar
    20    11    12   ar
    21    12    13    1
    22    12    14   ar
    23    14    15   ar
    24     6     7   ar
    25     7     8   ar
    26     8     3   ar
    27    27    22   ar
    28    15     9   ar
    29    18    19    1
@<TRIPOS>MOLECULE
*****
 27 29 0 0 0
SMALL
GASTEIGER

@<TRIPOS>ATOM
      1 N         139.1918  140.0995  166.3031 N.pl3   1  UNL1       -0.2854
      2 F         138.7295  145.2474  163.2558 F       1  UNL1       -0.2042
      3 C         138.8450  143.9604  164.0176 C.ar    1  UNL1        0.1402
      4 C         138.0373  142.7671  163.6011 C.ar    1  UNL1        0.0309
      5 C         138.1528  141.4802  164.3629 C.ar    1  UNL1        0.0171
      6 C         139.0762  141.3865  165.5413 C.ar    1  UNL1        0.0518
      7 C         139.8840  142.5798  165.9578 C.ar    1  UNL1        0.0171
      8 C         139.7684  143.8667  165.1960 C.ar    1  UNL1        0.0309
      9 C         140.1685  139.9835  167.4356 C.ar    1  UNL1        0.0518
     10 C         141.6149  139.7044  167.1530 C.ar    1  UNL1        0.0171
     11 C         142.5916  139.5884  168.2855 C.ar    1  UNL1        0.0309
     12 C         142.1219  139.7514  169.7007 C.ar    1  UNL1        0.1402
     13 F         143.0986  139.6353  170.8333 F       1  UNL1       -0.2042
     14 C         140.6754  140.0304  169.9834 C.ar    1  UNL1        0.0309
     15 C         139.6987  140.1464  168.8509 C.ar    1  UNL1        0.0171
     16 C         138.3307  138.9286  165.9325 C.3     1  UNL1        0.1126
     17 C         138.9113  137.7889  165.1489 C.3     1  UNL1        0.0907
     18 N         138.8656  137.8093  163.6496 N.3     1  UNL1       -0.2957
     19 H         138.4890  138.7178  163.3789 H       1  UNL1        0.1233
     20 C         140.1239  137.6089  162.8582 C.3     1  UNL1        0.0733
     21 C         141.4522  137.5852  163.5546 C.3     1  UNL1        0.0434
     22 C         142.2331  138.8547  163.7235 C.ar    1  UNL1       -0.0208
     23 C         143.6295  138.8092  164.2697 C.ar    1  UNL1       -0.0042
     24 C         144.4104  140.0787  164.4387 C.ar    1  UNL1       -0.0003
     25 C         143.7950  141.3937  164.0614 C.ar    1  UNL1       -0.0000
     26 C         142.3987  141.4391  163.5153 C.ar    1  UNL1       -0.0003
     27 C         141.6178  140.1696  163.3463 C.ar    1  UNL1       -0.0042
@<TRIPOS>BOND
     1     2     3    1
     2     3     4   ar
     3     4     5   ar
     4     5     6   ar
     5     6     1    1
     6     1    16    1
     7    16    17    1
     8    17    18    1
     9    18    20    1
    10    20    21    1
    11    21    22    1
    12    22    23   ar
    13    23    24   ar
    14    24    25   ar
    15    25    26   ar
    16    26    27   ar
    17     1     9    1
    18     9    10   ar
    19    10    11   ar
    20    11    12   ar
    21    12    13    1
    22    12    14   ar
    23    14    15   ar
    24     6     7   ar
    25     7     8   ar
    26     8     3   ar
    27    27    22   ar
    28    15     9   ar
    29    18    19    1
@<TRIPOS>MOLECULE
*****
 27 29 0 0 0
SMALL
GASTEIGER

@<TRIPOS>ATOM
      1 N         141.5018  142.1538  165.5351 N.pl3   1  UNL1       -0.2854
      2 F         142.7278  137.4743  161.9856 F       1  UNL1       -0.2042
      3 C         142.4213  138.6442  162.8730 C.ar    1  UNL1        0.1402
      4 C         141.9570  139.9386  162.2739 C.ar    1  UNL1        0.0309
      5 C         141.6505  141.1085  163.1613 C.ar    1  UNL1        0.0171
      6 C         141.8083  140.9840  164.6477 C.ar    1  UNL1        0.0518
      7 C         142.2727  139.6896  165.2468 C.ar    1  UNL1        0.0171
      8 C         142.5792  138.5197  164.3594 C.ar    1  UNL1        0.0309
      9 C         141.6322  142.0207  167.0234 C.ar    1  UNL1        0.0518
     10 C         142.9543  142.2721  167.6859 C.ar    1  UNL1        0.0171
     11 C         143.0847  142.1390  169.1744 C.ar    1  UNL1        0.0309
     12 C         141.8931  141.7544  170.0002 C.ar    1  UNL1        0.1402
     13 F         142.0235  141.6213  171.4886 F       1  UNL1       -0.2042
     14 C         140.5710  141.5030  169.3377 C.ar    1  UNL1        0.0309
     15 C         140.4406  141.6362  167.8494 C.ar    1  UNL1        0.0171
     16 C         141.0648  143.4568  164.9341 C.3     1  UNL1        0.1126
     17 C         139.6039  143.7751  164.8144 C.3     1  UNL1        0.0907
     18 N         138.8821  143.5119  163.5261 N.3     1  UNL1       -0.2957
     19 H         139.5442  143.0428  162.9081 H       1  UNL1        0.1233
     20 C         137.6287  142.6878  163.5235 C.3     1  UNL1        0.0733
     21 C         137.6182  141.3408  162.8635 C.3     1  UNL1        0.0434
     22 C         138.0918  140.1330  163.6165 C.ar    1  UNL1       -0.0208
     23 C         138.1913  140.1733  165.1127 C.ar    1  UNL1       -0.0042
     24 C         138.6649  138.9655  165.8657 C.ar    1  UNL1       -0.0003
     25 C         139.0389  137.7174  165.1224 C.ar    1  UNL1       -0.0000
     26 C         138.9393  137.6771  163.6263 C.ar    1  UNL1       -0.0003
     27 C         138.4657  138.8849  162.8734 C.ar    1  UNL1       -0.0042
@<TRIPOS>BOND
     1     2     3    1
     2     3     4   ar
     3     4     5   ar
     4     5     6   ar
     5     6     1    1
     6     1    16    1
     7    16    17    1
     8    17    18    1
     9    18    20    1
    10    20    21    1
    11    21    22    1
    12    22    23   ar
    13    23    24   ar
    14    24    25   ar
    15    25    26   ar
    16    26    27   ar
    17     1     9    1
    18     9    10   ar
    19    10    11   ar
    20    11    12   ar
    21    12    13    1
    22    12    14   ar
    23    14    15   ar
    24     6     7   ar
    25     7     8   ar
    26     8     3   ar
    27    27    22   ar
    28    15     9   ar
    29    18    19    1
@<TRIPOS>MOLECULE
*****
 27 29 0 0 0
SMALL
GASTEIGER

@<TRIPOS>ATOM
      1 N         141.3799  142.0682  165.6172 N.pl3   1  UNL1       -0.2854
      2 F         142.0331  141.5220  171.5565 F       1  UNL1       -0.2042
      3 C         141.8698  141.6586  170.0717 C.ar    1  UNL1        0.1402
      4 C         143.0304  142.0925  169.2263 C.ar    1  UNL1        0.0309
      5 C         142.8671  142.2290  167.7414 C.ar    1  UNL1        0.0171
      6 C         141.5432  141.9316  167.1020 C.ar    1  UNL1        0.0518
      7 C         140.3827  141.4977  167.9474 C.ar    1  UNL1        0.0171
      8 C         140.5460  141.3612  169.4323 C.ar    1  UNL1        0.0309
      9 C         141.7462  140.9277  164.7144 C.ar    1  UNL1        0.0518
     10 C         141.7231  141.1121  163.2259 C.ar    1  UNL1        0.0171
     11 C         142.0894  139.9715  162.3231 C.ar    1  UNL1        0.0309
     12 C         142.4788  138.6467  162.9087 C.ar    1  UNL1        0.1402
     13 F         142.8451  137.5061  162.0059 F       1  UNL1       -0.2042
     14 C         142.5019  138.4623  164.3972 C.ar    1  UNL1        0.0309
     15 C         142.1357  139.6027  165.3000 C.ar    1  UNL1        0.0171
     16 C         140.8503  143.3452  165.0352 C.3     1  UNL1        0.1126
     17 C         139.3959  143.6854  165.1723 C.3     1  UNL1        0.0907
     18 N         138.5160  143.7198  163.9579 N.3     1  UNL1       -0.2957
     19 H         139.1339  143.7159  163.1463 H       1  UNL1        0.1233
     20 C         137.5023  142.6368  163.7354 C.3     1  UNL1        0.0733
     21 C         137.8805  141.4000  162.9756 C.3     1  UNL1        0.0434
     22 C         138.2229  140.1408  163.7152 C.ar    1  UNL1       -0.0208
     23 C         138.6152  138.9080  162.9559 C.ar    1  UNL1       -0.0042
     24 C         138.9576  137.6488  163.6955 C.ar    1  UNL1       -0.0003
     25 C         138.9078  137.6223  165.1945 C.ar    1  UNL1       -0.0000
     26 C         138.5156  138.8550  165.9538 C.ar    1  UNL1       -0.0003
     27 C         138.1732  140.1142  165.2142 C.ar    1  UNL1       -0.0042
@<TRIPOS>BOND
     1     2     3    1
     2     3     4   ar
     3     4     5   ar
     4     5     6   ar
     5     6     1    1
     6     1    16    1
     7    16    17    1
     8    17    18    1
     9    18    20    1
    10    20    21    1
    11    21    22    1
    12    22    23   ar
    13    23    24   ar
    14    24    25   ar
    15    25    26   ar
    16    26    27   ar
    17     1     9    1
    18     9    10   ar
    19    10    11   ar
    20    11    12   ar
    21    12    13    1
    22    12    14   ar
    23    14    15   ar
    24     6     7   ar
    25     7     8   ar
    26     8     3   ar
    27    27    22   ar
    28    15     9   ar
    29    18    19    1
@<TRIPOS>MOLECULE
*****
 27 29 0 0 0
SMALL
GASTEIGER

@<TRIPOS>ATOM
      1 N         140.8098  139.9677  164.8124 N.pl3   1  UNL1       -0.2854
      2 F         141.5948  139.7550  170.7570 F       1  UNL1       -0.2042
      3 C         141.3985  139.8082  169.2708 C.ar    1  UNL1        0.1402
      4 C         140.0720  140.2188  168.7037 C.ar    1  UNL1        0.0309
      5 C         139.8758  140.2720  167.2175 C.ar    1  UNL1        0.0171
      6 C         141.0061  139.9145  166.2985 C.ar    1  UNL1        0.0518
      7 C         142.3326  139.5039  166.8657 C.ar    1  UNL1        0.0171
      8 C         142.5288  139.4507  168.3518 C.ar    1  UNL1        0.0309
      9 C         141.1875  141.2029  164.0497 C.ar    1  UNL1        0.0518
     10 C         141.8818  142.3335  164.7495 C.ar    1  UNL1        0.0171
     11 C         142.2595  143.5687  163.9867 C.ar    1  UNL1        0.0309
     12 C         141.9428  143.6732  162.5243 C.ar    1  UNL1        0.1402
     13 F         142.3205  144.9085  161.7615 F       1  UNL1       -0.2042
     14 C         141.2485  142.5426  161.8245 C.ar    1  UNL1        0.0309
     15 C         140.8709  141.3075  162.5872 C.ar    1  UNL1        0.0171
     16 C         140.2359  138.7857  164.0889 C.3     1  UNL1        0.1126
     17 C         140.9864  137.4873  164.0599 C.3     1  UNL1        0.0907
     18 N         141.4904  136.9412  162.7569 N.3     1  UNL1       -0.2957
     19 H         140.7530  136.3439  162.3829 H       1  UNL1        0.1233
     20 C         141.8893  137.8779  161.6553 C.3     1  UNL1        0.0733
     21 C         143.3388  138.1816  161.4171 C.3     1  UNL1        0.0434
     22 C         144.0062  139.2926  162.1723 C.ar    1  UNL1       -0.0208
     23 C         144.3182  139.1269  163.6301 C.ar    1  UNL1       -0.0042
     24 C         144.9856  140.2379  164.3853 C.ar    1  UNL1       -0.0003
     25 C         145.3410  141.5146  163.6826 C.ar    1  UNL1       -0.0000
     26 C         145.0290  141.6803  162.2248 C.ar    1  UNL1       -0.0003
     27 C         144.3616  140.5693  161.4697 C.ar    1  UNL1       -0.0042
@<TRIPOS>BOND
     1     2     3    1
     2     3     4   ar
     3     4     5   ar
     4     5     6   ar
     5     6     1    1
     6     1    16    1
     7    16    17    1
     8    17    18    1
     9    18    20    1
    10    20    21    1
    11    21    22    1
    12    22    23   ar
    13    23    24   ar
    14    24    25   ar
    15    25    26   ar
    16    26    27   ar
    17     1     9    1
    18     9    10   ar
    19    10    11   ar
    20    11    12   ar
    21    12    13    1
    22    12    14   ar
    23    14    15   ar
    24     6     7   ar
    25     7     8   ar
    26     8     3   ar
    27    27    22   ar
    28    15     9   ar
    29    18    19    1
