@<TRIPOS>MOLECULE
*****
 27 30 0 0 0
SMALL
GASTEIGER

@<TRIPOS>ATOM
      1 C         138.8335  140.2171  166.0594 C.ar    1  UNL1        0.1477
      2 N         138.6785  141.1798  164.9196 N.ar    1  UNL1       -0.2292
      3 C         139.3577  142.5163  164.9690 C.ar    1  UNL1        0.0873
      4 C         140.1920  142.8901  166.1582 C.ar    1  UNL1        0.0400
      5 C         140.3470  141.9273  167.2981 C.ar    1  UNL1        0.1032
      6 N         141.1813  142.3011  168.4873 N.ar    1  UNL1       -0.2405
      7 C         141.3363  141.3384  169.6271 C.ar    1  UNL1        0.1195
      8 C         140.6570  140.0019  169.5776 C.ar    1  UNL1        0.1196
      9 N         139.8227  139.6282  168.3884 N.ar    1  UNL1       -0.2379
     10 C         139.6677  140.5909  167.2487 C.ar    1  UNL1        0.1302
     11 C         139.2027  143.4790  163.8292 C.ar    1  UNL1        0.0573
     12 C         137.9489  144.2159  163.4619 C.ar    1  UNL1        0.1231
     13 N         138.2455  145.0662  162.2622 N.ar    1  UNL1       -0.1675
     14 N         139.6827  144.8548  161.8882 N.ar    1  UNL1       -0.2473
     15 C         140.4020  145.5093  160.7462 C.3     1  UNL1        0.1538
     16 C         140.2743  143.8739  162.8566 C.ar    1  UNL1        0.0982
     17 N         138.1542  138.8807  166.0099 N.pl3   1  UNL1       -0.3157
     18 H         137.2502  138.7738  166.3850 H       1  UNL1        0.1483
     19 C         138.8521  137.7071  165.3890 C.3     1  UNL1        0.1057
     20 C         141.8072  138.1392  165.1043 C.3     1  UNL1        0.0897
     21 N         140.9412  138.0498  163.8829 N.3     1  UNL1       -0.2689
     22 C         141.5527  138.1765  162.5190 C.3     1  UNL1        0.0895
     23 C         140.6867  138.0871  161.2975 C.3     1  UNL1        0.0862
     24 N         139.2092  137.8710  161.4399 N.3     1  UNL1       -0.2951
     25 C         138.5977  137.7444  162.8037 C.3     1  UNL1        0.0865
     26 C         139.4636  137.8338  164.0252 C.3     1  UNL1        0.0931
     27 H         138.9874  137.0119  160.9368 H       1  UNL1        0.1233
@<TRIPOS>BOND
     1    20    21    1
     2    21    22    1
     3    22    23    1
     4    23    24    1
     5    24    25    1
     6    25    26    1
     7    26    19    1
     8    19    17    1
     9    17     1    1
    10     1     2   ar
    11     2     3   ar
    12     3    11    1
    13    11    12   ar
    14    12    13   ar
    15    13    14   ar
    16    14    15    1
    17    14    16   ar
    18     3     4   ar
    19     4     5   ar
    20     5     6   ar
    21     6     7   ar
    22     7     8   ar
    23     8     9   ar
    24     9    10   ar
    25    26    21    1
    26    10     1   ar
    27    16    11   ar
    28    10     5   ar
    29    24    27    1
    30    17    18    1
@<TRIPOS>MOLECULE
*****
 27 30 0 0 0
SMALL
GASTEIGER

@<TRIPOS>ATOM
      1 C         142.3589  140.5729  166.6807 C.ar    1  UNL1        0.1477
      2 N         141.6579  141.4184  165.6592 N.ar    1  UNL1       -0.2292
      3 C         140.7758  142.5491  166.0991 C.ar    1  UNL1        0.0873
      4 C         140.5947  142.8342  167.5606 C.ar    1  UNL1        0.0400
      5 C         141.2957  141.9886  168.5822 C.ar    1  UNL1        0.1032
      6 N         141.1146  142.2736  170.0437 N.ar    1  UNL1       -0.2405
      7 C         141.8157  141.4281  171.0652 C.ar    1  UNL1        0.1195
      8 C         142.6978  140.2974  170.6252 C.ar    1  UNL1        0.1196
      9 N         142.8789  140.0124  169.1638 N.ar    1  UNL1       -0.2379
     10 C         142.1778  140.8579  168.1423 C.ar    1  UNL1        0.1302
     11 C         140.0748  143.3947  165.0775 C.ar    1  UNL1        0.0573
     12 C         138.5932  143.4568  164.8511 C.ar    1  UNL1        0.1231
     13 N         138.3350  144.4271  163.7367 N.ar    1  UNL1       -0.1675
     14 N         139.6569  144.9646  163.2744 N.ar    1  UNL1       -0.2473
     15 C         139.8668  145.9645  162.1762 C.3     1  UNL1        0.1538
     16 C         140.7321  144.3265  164.1031 C.ar    1  UNL1        0.0982
     17 N         143.2410  139.4422  166.2408 N.pl3   1  UNL1       -0.3157
     18 H         144.1615  139.3741  166.5832 H       1  UNL1        0.1483
     19 C         142.7206  138.4154  165.2792 C.3     1  UNL1        0.1057
     20 C         140.9026  137.1654  163.2464 C.3     1  UNL1        0.0897
     21 N         142.1319  137.9007  162.8016 N.3     1  UNL1       -0.2689
     22 C         142.4523  138.0111  161.3403 C.3     1  UNL1        0.0895
     23 C         143.6817  138.7465  160.8955 C.3     1  UNL1        0.0862
     24 N         144.5907  139.3715  161.9119 N.3     1  UNL1       -0.2951
     25 C         144.2703  139.2611  163.3732 C.3     1  UNL1        0.0865
     26 C         143.0410  138.5258  163.8180 C.3     1  UNL1        0.0931
     27 H         144.6351  140.3671  161.6946 H       1  UNL1        0.1233
@<TRIPOS>BOND
     1    20    21    1
     2    21    22    1
     3    22    23    1
     4    23    24    1
     5    24    25    1
     6    25    26    1
     7    26    19    1
     8    19    17    1
     9    17     1    1
    10     1     2   ar
    11     2     3   ar
    12     3    11    1
    13    11    12   ar
    14    12    13   ar
    15    13    14   ar
    16    14    15    1
    17    14    16   ar
    18     3     4   ar
    19     4     5   ar
    20     5     6   ar
    21     6     7   ar
    22     7     8   ar
    23     8     9   ar
    24     9    10   ar
    25    26    21    1
    26    10     1   ar
    27    16    11   ar
    28    10     5   ar
    29    24    27    1
    30    17    18    1
@<TRIPOS>MOLECULE
*****
 27 30 0 0 0
SMALL
GASTEIGER

@<TRIPOS>ATOM
      1 C         138.8345  140.4855  165.7291 C.ar    1  UNL1        0.1477
      2 N         139.6900  140.8313  166.9117 N.ar    1  UNL1       -0.2292
      3 C         140.3589  142.1718  166.9871 C.ar    1  UNL1        0.0873
      4 C         140.1723  143.1664  165.8800 C.ar    1  UNL1        0.0400
      5 C         139.3168  142.8207  164.6973 C.ar    1  UNL1        0.1032
      6 N         139.1302  143.8153  163.5902 N.ar    1  UNL1       -0.2405
      7 C         138.2747  143.4695  162.4076 C.ar    1  UNL1        0.1195
      8 C         137.6058  142.1290  162.3322 C.ar    1  UNL1        0.1196
      9 N         137.7924  141.1344  163.4393 N.ar    1  UNL1       -0.2379
     10 C         138.6479  141.4802  164.6219 C.ar    1  UNL1        0.1302
     11 C         141.2145  142.5176  168.1697 C.ar    1  UNL1        0.0573
     12 C         140.7612  143.2370  169.4055 C.ar    1  UNL1        0.1231
     13 N         141.9401  143.3687  170.3238 N.ar    1  UNL1       -0.1675
     14 N         143.1218  142.7307  169.6554 N.ar    1  UNL1       -0.2473
     15 C         144.5084  142.6355  170.2193 C.3     1  UNL1        0.1538
     16 C         142.6733  142.2047  168.3242 C.ar    1  UNL1        0.0982
     17 N         138.1656  139.1450  165.6537 N.pl3   1  UNL1       -0.3157
     18 H         137.1995  139.0666  165.8261 H       1  UNL1        0.1483
     19 C         138.9686  137.9241  165.3156 C.3     1  UNL1        0.1057
     20 C         138.6080  137.8781  162.3377 C.3     1  UNL1        0.0897
     21 N         139.9815  138.0142  162.9248 N.3     1  UNL1       -0.2689
     22 C         141.1748  138.1273  162.0230 C.3     1  UNL1        0.0895
     23 C         142.5484  138.2634  162.6101 C.3     1  UNL1        0.0862
     24 N         142.7288  138.2864  164.0990 N.3     1  UNL1       -0.2951
     25 C         141.5355  138.1733  165.0009 C.3     1  UNL1        0.0865
     26 C         140.1619  138.0372  164.4138 C.3     1  UNL1        0.0931
     27 H         143.1872  139.1688  164.3265 H       1  UNL1        0.1233
@<TRIPOS>BOND
     1    20    21    1
     2    21    22    1
     3    22    23    1
     4    23    24    1
     5    24    25    1
     6    25    26    1
     7    26    19    1
     8    19    17    1
     9    17     1    1
    10     1     2   ar
    11     2     3   ar
    12     3    11    1
    13    11    12   ar
    14    12    13   ar
    15    13    14   ar
    16    14    15    1
    17    14    16   ar
    18     3     4   ar
    19     4     5   ar
    20     5     6   ar
    21     6     7   ar
    22     7     8   ar
    23     8     9   ar
    24     9    10   ar
    25    26    21    1
    26    10     1   ar
    27    16    11   ar
    28    10     5   ar
    29    24    27    1
    30    17    18    1
@<TRIPOS>MOLECULE
*****
 27 30 0 0 0
SMALL
GASTEIGER

@<TRIPOS>ATOM
      1 C         141.8283  140.6292  166.4647 C.ar    1  UNL1        0.1477
      2 N         141.1703  140.2031  165.1859 N.ar    1  UNL1       -0.2292
      3 C         139.7743  139.6546  165.2073 C.ar    1  UNL1        0.0873
      4 C         139.0365  139.5321  166.5074 C.ar    1  UNL1        0.0400
      5 C         139.6945  139.9582  167.7863 C.ar    1  UNL1        0.1032
      6 N         138.9566  139.8357  169.0865 N.ar    1  UNL1       -0.2405
      7 C         139.6147  140.2618  170.3653 C.ar    1  UNL1        0.1195
      8 C         141.0106  140.8104  170.3439 C.ar    1  UNL1        0.1196
      9 N         141.7485  140.9329  169.0437 N.ar    1  UNL1       -0.2379
     10 C         141.0904  140.5068  167.7650 C.ar    1  UNL1        0.1302
     11 C         139.1163  139.2285  163.9284 C.ar    1  UNL1        0.0573
     12 C         138.8909  137.8145  163.4814 C.ar    1  UNL1        0.1231
     13 N         138.2034  137.8536  162.1487 N.ar    1  UNL1       -0.1675
     14 N         138.0040  139.2919  161.7722 N.ar    1  UNL1       -0.2473
     15 C         137.3544  139.7925  160.5163 C.3     1  UNL1        0.1538
     16 C         138.5681  140.1415  162.8721 C.ar    1  UNL1        0.0982
     17 N         143.2243  141.1778  166.4433 N.pl3   1  UNL1       -0.3157
     18 H         143.9522  140.6889  166.8909 H       1  UNL1        0.1483
     19 C         143.5111  142.4712  165.7400 C.3     1  UNL1        0.1057
     20 C         141.6633  143.4023  163.5678 C.3     1  UNL1        0.0897
     21 N         143.0446  142.9283  163.2253 N.3     1  UNL1       -0.2689
     22 C         143.5020  142.9199  161.7968 C.3     1  UNL1        0.0895
     23 C         144.8834  142.4459  161.4544 C.3     1  UNL1        0.0862
     24 N         145.8073  141.9804  162.5405 N.3     1  UNL1       -0.2951
     25 C         145.3498  141.9888  163.9690 C.3     1  UNL1        0.0865
     26 C         143.9685  142.4628  164.3115 C.3     1  UNL1        0.0931
     27 H         146.6377  142.5707  162.4938 H       1  UNL1        0.1233
@<TRIPOS>BOND
     1    20    21    1
     2    21    22    1
     3    22    23    1
     4    23    24    1
     5    24    25    1
     6    25    26    1
     7    26    19    1
     8    19    17    1
     9    17     1    1
    10     1     2   ar
    11     2     3   ar
    12     3    11    1
    13    11    12   ar
    14    12    13   ar
    15    13    14   ar
    16    14    15    1
    17    14    16   ar
    18     3     4   ar
    19     4     5   ar
    20     5     6   ar
    21     6     7   ar
    22     7     8   ar
    23     8     9   ar
    24     9    10   ar
    25    26    21    1
    26    10     1   ar
    27    16    11   ar
    28    10     5   ar
    29    24    27    1
    30    17    18    1
@<TRIPOS>MOLECULE
*****
 27 30 0 0 0
SMALL
GASTEIGER

@<TRIPOS>ATOM
      1 C         138.3150  140.9894  164.3841 C.ar    1  UNL1        0.1477
      2 N         138.7975  140.3649  165.6597 N.ar    1  UNL1       -0.2292
      3 C         139.6986  141.1357  166.5782 C.ar    1  UNL1        0.0873
      4 C         140.1173  142.5311  166.2212 C.ar    1  UNL1        0.0400
      5 C         139.6348  143.1557  164.9456 C.ar    1  UNL1        0.1032
      6 N         140.0535  144.5511  164.5885 N.ar    1  UNL1       -0.2405
      7 C         139.5710  145.1757  163.3130 C.ar    1  UNL1        0.1195
      8 C         138.6699  144.4048  162.3944 C.ar    1  UNL1        0.1196
      9 N         138.2512  143.0094  162.7514 N.ar    1  UNL1       -0.2379
     10 C         138.7337  142.3849  164.0270 C.ar    1  UNL1        0.1302
     11 C         140.1811  140.5111  167.8539 C.ar    1  UNL1        0.0573
     12 C         139.3860  140.3588  169.1167 C.ar    1  UNL1        0.1231
     13 N         140.2568  139.6827  170.1339 N.ar    1  UNL1       -0.1675
     14 N         141.5900  139.4173  169.4997 N.ar    1  UNL1       -0.2473
     15 C         142.7639  138.7560  170.1589 C.3     1  UNL1        0.1538
     16 C         141.5432  139.9292  168.0906 C.ar    1  UNL1        0.0982
     17 N         137.4139  140.2185  163.4656 N.pl3   1  UNL1       -0.3157
     18 H         136.4580  140.1219  163.6806 H       1  UNL1        0.1483
     19 C         137.9691  139.5949  162.2195 C.3     1  UNL1        0.1057
     20 C         140.2478  140.9391  160.8050 C.3     1  UNL1        0.0897
     21 N         140.4732  139.6449  161.5289 N.3     1  UNL1       -0.2689
     22 C         141.8380  139.0227  161.5455 C.3     1  UNL1        0.0895
     23 C         142.0634  137.7283  162.2694 C.3     1  UNL1        0.0862
     24 N         140.9241  137.0563  162.9766 N.3     1  UNL1       -0.2951
     25 C         139.5593  137.6785  162.9600 C.3     1  UNL1        0.0865
     26 C         139.3338  138.9727  162.2361 C.3     1  UNL1        0.0931
     27 H         141.1959  136.9688  163.9558 H       1  UNL1        0.1233
@<TRIPOS>BOND
     1    20    21    1
     2    21    22    1
     3    22    23    1
     4    23    24    1
     5    24    25    1
     6    25    26    1
     7    26    19    1
     8    19    17    1
     9    17     1    1
    10     1     2   ar
    11     2     3   ar
    12     3    11    1
    13    11    12   ar
    14    12    13   ar
    15    13    14   ar
    16    14    15    1
    17    14    16   ar
    18     3     4   ar
    19     4     5   ar
    20     5     6   ar
    21     6     7   ar
    22     7     8   ar
    23     8     9   ar
    24     9    10   ar
    25    26    21    1
    26    10     1   ar
    27    16    11   ar
    28    10     5   ar
    29    24    27    1
    30    17    18    1
@<TRIPOS>MOLECULE
*****
 27 30 0 0 0
SMALL
GASTEIGER

@<TRIPOS>ATOM
      1 C         140.4435  144.0944  164.6160 C.ar    1  UNL1        0.1477
      2 N         139.9971  143.2702  165.7870 N.ar    1  UNL1       -0.2292
      3 C         140.9024  142.2151  166.3502 C.ar    1  UNL1        0.0873
      4 C         142.2542  141.9843  165.7424 C.ar    1  UNL1        0.0400
      5 C         142.7007  142.8086  164.5714 C.ar    1  UNL1        0.1032
      6 N         144.0524  142.5778  163.9636 N.ar    1  UNL1       -0.2405
      7 C         144.4988  143.4021  162.7926 C.ar    1  UNL1        0.1195
      8 C         143.5935  144.4571  162.2294 C.ar    1  UNL1        0.1196
      9 N         142.2417  144.6879  162.8372 N.ar    1  UNL1       -0.2379
     10 C         141.7953  143.8637  164.0082 C.ar    1  UNL1        0.1302
     11 C         140.4559  141.3908  167.5212 C.ar    1  UNL1        0.0573
     12 C         139.4817  140.2511  167.4768 C.ar    1  UNL1        0.1231
     13 N         139.3289  139.7174  168.8704 N.ar    1  UNL1       -0.1675
     14 N         140.2087  140.5274  169.7760 N.ar    1  UNL1       -0.2473
     15 C         140.3646  140.3366  171.2555 C.3     1  UNL1        0.1538
     16 C         140.9052  141.5616  168.9421 C.ar    1  UNL1        0.0982
     17 N         139.5382  145.1495  164.0528 N.pl3   1  UNL1       -0.3157
     18 H         139.4786  146.0306  164.4880 H       1  UNL1        0.1483
     19 C         138.7235  144.8622  162.8265 C.3     1  UNL1        0.1057
     20 C         139.8953  143.5033  160.4222 C.3     1  UNL1        0.0897
     21 N         138.9201  142.7718  161.2961 N.3     1  UNL1       -0.2689
     22 C         138.5307  141.3609  160.9680 C.3     1  UNL1        0.0895
     23 C         137.5555  140.6294  161.8420 C.3     1  UNL1        0.0862
     24 N         136.9696  141.3088  163.0441 N.3     1  UNL1       -0.2951
     25 C         137.3590  142.7197  163.3723 C.3     1  UNL1        0.0865
     26 C         138.3342  143.4513  162.4983 C.3     1  UNL1        0.0931
     27 H         137.2164  140.7394  163.8536 H       1  UNL1        0.1233
@<TRIPOS>BOND
     1    20    21    1
     2    21    22    1
     3    22    23    1
     4    23    24    1
     5    24    25    1
     6    25    26    1
     7    26    19    1
     8    19    17    1
     9    17     1    1
    10     1     2   ar
    11     2     3   ar
    12     3    11    1
    13    11    12   ar
    14    12    13   ar
    15    13    14   ar
    16    14    15    1
    17    14    16   ar
    18     3     4   ar
    19     4     5   ar
    20     5     6   ar
    21     6     7   ar
    22     7     8   ar
    23     8     9   ar
    24     9    10   ar
    25    26    21    1
    26    10     1   ar
    27    16    11   ar
    28    10     5   ar
    29    24    27    1
    30    17    18    1
@<TRIPOS>MOLECULE
*****
 27 30 0 0 0
SMALL
GASTEIGER

@<TRIPOS>ATOM
      1 C         142.3376  140.4891  166.3073 C.ar    1  UNL1        0.1477
      2 N         141.6382  141.4028  165.3450 N.ar    1  UNL1       -0.2292
      3 C         140.7387  142.4873  165.8595 C.ar    1  UNL1        0.0873
      4 C         140.5386  142.6582  167.3362 C.ar    1  UNL1        0.0400
      5 C         141.2379  141.7445  168.2985 C.ar    1  UNL1        0.1032
      6 N         141.0378  141.9153  169.7752 N.ar    1  UNL1       -0.2405
      7 C         141.7371  141.0016  170.7375 C.ar    1  UNL1        0.1195
      8 C         142.6366  139.9170  170.2231 C.ar    1  UNL1        0.1196
      9 N         142.8368  139.7462  168.7464 N.ar    1  UNL1       -0.2379
     10 C         142.1374  140.6599  167.7841 C.ar    1  UNL1        0.1302
     11 C         140.0394  143.4011  164.8971 C.ar    1  UNL1        0.0573
     12 C         138.5547  143.5493  164.7425 C.ar    1  UNL1        0.1231
     13 N         138.2997  144.5668  163.6703 N.ar    1  UNL1       -0.1675
     14 N         139.6267  145.0474  163.1622 N.ar    1  UNL1       -0.2473
     15 C         139.8409  146.0690  162.0851 C.3     1  UNL1        0.1538
     16 C         140.7019  144.3269  163.9204 C.ar    1  UNL1        0.0982
     17 N         143.2370  139.4045  165.7929 N.pl3   1  UNL1       -0.3157
     18 H         144.2035  139.5684  165.7020 H       1  UNL1        0.1483
     19 C         142.6640  138.0703  165.4169 C.3     1  UNL1        0.1057
     20 C         143.1694  138.2165  162.4634 C.3     1  UNL1        0.0897
     21 N         141.7687  138.0644  162.9779 N.3     1  UNL1       -0.2689
     22 C         140.6207  137.9855  162.0157 C.3     1  UNL1        0.0895
     23 C         139.2199  137.8334  162.5304 C.3     1  UNL1        0.0862
     24 N         138.9672  137.7603  164.0071 N.3     1  UNL1       -0.2951
     25 C         140.1152  137.8392  164.9693 C.3     1  UNL1        0.0865
     26 C         141.5159  137.9913  164.4547 C.3     1  UNL1        0.0931
     27 H         138.4972  136.8720  164.1817 H       1  UNL1        0.1233
@<TRIPOS>BOND
     1    20    21    1
     2    21    22    1
     3    22    23    1
     4    23    24    1
     5    24    25    1
     6    25    26    1
     7    26    19    1
     8    19    17    1
     9    17     1    1
    10     1     2   ar
    11     2     3   ar
    12     3    11    1
    13    11    12   ar
    14    12    13   ar
    15    13    14   ar
    16    14    15    1
    17    14    16   ar
    18     3     4   ar
    19     4     5   ar
    20     5     6   ar
    21     6     7   ar
    22     7     8   ar
    23     8     9   ar
    24     9    10   ar
    25    26    21    1
    26    10     1   ar
    27    16    11   ar
    28    10     5   ar
    29    24    27    1
    30    17    18    1
@<TRIPOS>MOLECULE
*****
 27 30 0 0 0
SMALL
GASTEIGER

@<TRIPOS>ATOM
      1 C         138.6372  140.3140  164.3712 C.ar    1  UNL1        0.1477
      2 N         138.7840  140.6513  165.8253 N.ar    1  UNL1       -0.2292
      3 C         139.9404  140.1049  166.6090 C.ar    1  UNL1        0.0873
      4 C         140.9501  139.2212  165.9384 C.ar    1  UNL1        0.0400
      5 C         140.8033  138.8839  164.4842 C.ar    1  UNL1        0.1032
      6 N         141.8129  138.0002  163.8137 N.ar    1  UNL1       -0.2405
      7 C         141.6661  137.6629  162.3595 C.ar    1  UNL1        0.1195
      8 C         140.5097  138.2092  161.5759 C.ar    1  UNL1        0.1196
      9 N         139.5000  139.0929  162.2464 N.ar    1  UNL1       -0.2379
     10 C         139.6468  139.4303  163.7006 C.ar    1  UNL1        0.1302
     11 C         140.0872  140.4423  168.0632 C.ar    1  UNL1        0.0573
     12 C         139.0941  140.1340  169.1443 C.ar    1  UNL1        0.1231
     13 N         139.6460  140.6483  170.4409 N.ar    1  UNL1       -0.1675
     14 N         140.9801  141.2744  170.1610 N.ar    1  UNL1       -0.2473
     15 C         141.8829  141.9153  171.1729 C.3     1  UNL1        0.1538
     16 C         141.2528  141.1470  168.6915 C.ar    1  UNL1        0.0982
     17 N         137.4807  140.8604  163.5876 N.pl3   1  UNL1       -0.3157
     18 H         136.8675  140.2466  163.1223 H       1  UNL1        0.1483
     19 C         137.2586  142.3419  163.5128 C.3     1  UNL1        0.1057
     20 C         138.6628  144.6635  164.7930 C.3     1  UNL1        0.0897
     21 N         138.8860  144.3599  163.3411 N.3     1  UNL1       -0.2689
     22 C         139.8114  145.2170  162.5293 C.3     1  UNL1        0.0895
     23 C         140.0346  144.9134  161.0774 C.3     1  UNL1        0.0862
     24 N         139.3325  143.7526  160.4373 N.3     1  UNL1       -0.2951
     25 C         138.4072  142.8955  161.2491 C.3     1  UNL1        0.0865
     26 C         138.1839  143.1991  162.7010 C.3     1  UNL1        0.0931
     27 H         140.0574  143.1367  160.0692 H       1  UNL1        0.1233
@<TRIPOS>BOND
     1    20    21    1
     2    21    22    1
     3    22    23    1
     4    23    24    1
     5    24    25    1
     6    25    26    1
     7    26    19    1
     8    19    17    1
     9    17     1    1
    10     1     2   ar
    11     2     3   ar
    12     3    11    1
    13    11    12   ar
    14    12    13   ar
    15    13    14   ar
    16    14    15    1
    17    14    16   ar
    18     3     4   ar
    19     4     5   ar
    20     5     6   ar
    21     6     7   ar
    22     7     8   ar
    23     8     9   ar
    24     9    10   ar
    25    26    21    1
    26    10     1   ar
    27    16    11   ar
    28    10     5   ar
    29    24    27    1
    30    17    18    1
@<TRIPOS>MOLECULE
*****
 27 30 0 0 0
SMALL
GASTEIGER

@<TRIPOS>ATOM
      1 C         138.3693  141.2172  164.6296 C.ar    1  UNL1        0.1477
      2 N         139.2225  141.2018  165.8632 N.ar    1  UNL1       -0.2292
      3 C         140.1947  140.0821  166.0888 C.ar    1  UNL1        0.0873
      4 C         140.3138  138.9777  165.0808 C.ar    1  UNL1        0.0400
      5 C         139.4605  138.9930  163.8471 C.ar    1  UNL1        0.1032
      6 N         139.5796  137.8886  162.8392 N.ar    1  UNL1       -0.2405
      7 C         138.7264  137.9039  161.6056 C.ar    1  UNL1        0.1195
      8 C         137.7541  139.0236  161.3800 C.ar    1  UNL1        0.1196
      9 N         137.6351  140.1280  162.3880 N.ar    1  UNL1       -0.2379
     10 C         138.4883  140.1127  163.6216 C.ar    1  UNL1        0.1302
     11 C         141.0480  140.0668  167.3224 C.ar    1  UNL1        0.0573
     12 C         142.4255  139.4838  167.4344 C.ar    1  UNL1        0.1231
     13 N         142.9024  139.6885  168.8418 N.ar    1  UNL1       -0.1675
     14 N         141.8195  140.3980  169.5996 N.ar    1  UNL1       -0.2473
     15 C         141.8733  140.8026  171.0429 C.3     1  UNL1        0.1538
     16 C         140.6735  140.6318  168.6605 C.ar    1  UNL1        0.0982
     17 N         137.3970  142.3369  164.4040 N.pl3   1  UNL1       -0.3157
     18 H         136.5839  142.4014  164.9554 H       1  UNL1        0.1483
     19 C         137.6635  143.3583  163.3384 C.3     1  UNL1        0.1057
     20 C         139.1696  142.8512  160.7939 C.3     1  UNL1        0.0897
     21 N         139.7984  143.6608  161.8889 N.3     1  UNL1       -0.2689
     22 C         141.1802  144.2169  161.7118 C.3     1  UNL1        0.0895
     23 C         141.8089  145.0265  162.8069 C.3     1  UNL1        0.0862
     24 N         141.0558  145.2800  164.0791 N.3     1  UNL1       -0.2951
     25 C         139.6740  144.7240  164.2563 C.3     1  UNL1        0.0865
     26 C         139.0453  143.9144  163.1612 C.3     1  UNL1        0.0931
     27 H         140.9811  146.2923  164.1804 H       1  UNL1        0.1233
@<TRIPOS>BOND
     1    20    21    1
     2    21    22    1
     3    22    23    1
     4    23    24    1
     5    24    25    1
     6    25    26    1
     7    26    19    1
     8    19    17    1
     9    17     1    1
    10     1     2   ar
    11     2     3   ar
    12     3    11    1
    13    11    12   ar
    14    12    13   ar
    15    13    14   ar
    16    14    15    1
    17    14    16   ar
    18     3     4   ar
    19     4     5   ar
    20     5     6   ar
    21     6     7   ar
    22     7     8   ar
    23     8     9   ar
    24     9    10   ar
    25    26    21    1
    26    10     1   ar
    27    16    11   ar
    28    10     5   ar
    29    24    27    1
    30    17    18    1
