@<TRIPOS>MOLECULE
*****
 33 37 0 0 0
SMALL
GASTEIGER

@<TRIPOS>ATOM
      1 N         142.7277  138.7875  163.5423 N.3     1  UNL1       -0.2726
      2 C         143.9152  139.0536  162.6654 C.3     1  UNL1        0.0721
      3 C         144.5849  140.3020  163.1585 C.3     1  UNL1        0.0190
      4 C         143.8112  140.8074  164.3400 C.3     1  UNL1        0.0201
      5 C         144.6806  142.0024  164.5973 C.3     1  UNL1        0.0061
      6 C         143.4931  141.7362  165.4741 C.3     1  UNL1        0.0237
      7 C         142.6634  139.8713  164.5773 C.3     1  UNL1        0.0724
      8 C         142.6238  142.1187  166.6351 C.ar    1  UNL1       -0.0225
      9 C         141.1848  142.4768  166.4088 C.ar    1  UNL1       -0.0043
     10 C         140.3155  142.8593  167.5698 C.ar    1  UNL1        0.0035
     11 C         140.8852  142.8838  168.9572 C.ar    1  UNL1        0.0714
     12 C         142.3242  142.5257  169.1835 C.ar    1  UNL1        0.0035
     13 C         143.1935  142.1432  168.0225 C.ar    1  UNL1       -0.0043
     14 C         140.0159  143.2663  170.1182 C.3     1  UNL1        0.4186
     15 F         139.1466  143.6488  171.2793 F       1  UNL1       -0.1659
     16 F         140.5499  144.6667  170.0566 F       1  UNL1       -0.1659
     17 F         139.4820  141.8659  170.1798 F       1  UNL1       -0.1659
     18 C         141.7722  137.6390  163.4079 C.3     1  UNL1        0.0730
     19 C         140.6168  137.5098  164.3556 C.3     1  UNL1        0.0294
     20 C         139.2345  137.8834  163.9086 C.3     1  UNL1        0.0666
     21 S         139.0337  138.5817  162.5963 S.3     1  UNL1       -0.0756
     22 C         138.7413  142.4364  162.2480 C.ar    1  UNL1        0.2029
     23 N         137.3925  142.0927  162.8071 N.ar    1  UNL1       -0.1250
     24 N         137.3379  140.6069  163.0057 N.ar    1  UNL1       -0.1220
     25 C         138.6529  140.0323  162.5692 C.ar    1  UNL1        0.1933
     26 N         139.5203  141.1629  162.1010 N.ar    1  UNL1       -0.2860
     27 C         140.9208  141.0415  161.5777 C.3     1  UNL1        0.1341
     28 C         139.2513  144.8831  164.3464 C.3     1  UNL1        0.0556
     29 C         139.4604  144.9366  162.8620 C.ar    1  UNL1        0.1001
     30 N         139.9407  146.1241  162.0815 N.ar    1  UNL1       -0.2085
     31 C         140.0031  145.7334  160.6346 C.ar    1  UNL1        0.2849
     32 O         139.5614  144.3044  160.5209 O.2     1  UNL1       -0.4283
     33 C         139.2260  143.8120  161.8975 C.ar    1  UNL1        0.1964
@<TRIPOS>BOND
     1    28    29    1
     2    29    30   ar
     3    30    31   ar
     4    31    32   ar
     5    32    33   ar
     6    33    22    1
     7    22    23   ar
     8    23    24   ar
     9    24    25   ar
    10    25    21    1
    11    21    20    1
    12    20    19    1
    13    19    18    1
    14    18     1    1
    15     1     2    1
    16     2     3    1
    17     4     3    1
    18     4     5    1
    19     5     6    1
    20     6     8    1
    21     8     9   ar
    22     9    10   ar
    23    10    11   ar
    24    11    14    1
    25    14    15    1
    26    14    16    1
    27    14    17    1
    28    11    12   ar
    29    12    13   ar
    30     4     7    1
    31    25    26   ar
    32    26    27    1
    33    33    29   ar
    34    26    22   ar
    35     7     1    1
    36     6     4    1
    37    13     8   ar
@<TRIPOS>MOLECULE
*****
 33 37 0 0 0
SMALL
GASTEIGER

@<TRIPOS>ATOM
      1 N         143.1204  143.4029  162.1258 N.3     1  UNL1       -0.2726
      2 C         144.4113  143.1091  161.4206 C.3     1  UNL1        0.0721
      3 C         145.1781  142.1220  162.2498 C.3     1  UNL1        0.0190
      4 C         144.3611  141.8057  163.4674 C.3     1  UNL1        0.0201
      5 C         145.3416  140.8426  164.0683 C.3     1  UNL1        0.0061
      6 C         144.0507  141.1364  164.7734 C.3     1  UNL1        0.0237
      7 C         143.0894  142.5974  163.3908 C.3     1  UNL1        0.0724
      8 C         143.1262  140.9196  165.9346 C.ar    1  UNL1       -0.0225
      9 C         143.1264  141.8838  167.0837 C.ar    1  UNL1       -0.0043
     10 C         142.2019  141.6670  168.2448 C.ar    1  UNL1        0.0035
     11 C         141.2771  140.4861  168.2568 C.ar    1  UNL1        0.0714
     12 C         141.2768  139.5220  167.1077 C.ar    1  UNL1        0.0035
     13 C         142.2013  139.7387  165.9466 C.ar    1  UNL1       -0.0043
     14 C         140.3526  140.2693  169.4179 C.3     1  UNL1        0.4186
     15 F         139.4280  140.0526  170.5791 F       1  UNL1       -0.1659
     16 F         141.2771  139.2189  169.9580 F       1  UNL1       -0.1659
     17 F         139.4280  141.3198  168.8779 F       1  UNL1       -0.1659
     18 C         142.0487  144.3382  161.6496 C.3     1  UNL1        0.0730
     19 C         141.1520  145.0184  162.6412 C.3     1  UNL1        0.0294
     20 C         139.7228  145.3049  162.2869 C.3     1  UNL1        0.0666
     21 S         138.6165  144.7970  163.1634 S.3     1  UNL1       -0.0756
     22 C         138.1157  141.0044  163.8203 C.ar    1  UNL1        0.2029
     23 N         137.3749  141.1750  162.5271 N.ar    1  UNL1       -0.1250
     24 N         137.4724  142.6164  162.1237 N.ar    1  UNL1       -0.1220
     25 C         138.2734  143.3368  163.1674 C.ar    1  UNL1        0.1933
     26 N         138.6710  142.3406  164.2160 N.ar    1  UNL1       -0.2860
     27 C         139.4816  142.6296  165.4446 C.3     1  UNL1        0.1341
     28 C         139.7783  138.3757  162.8326 C.3     1  UNL1        0.0556
     29 C         139.0377  138.5146  164.1296 C.ar    1  UNL1        0.1001
     30 N         138.9313  137.4696  165.2004 N.ar    1  UNL1       -0.2085
     31 C         138.1013  138.0320  166.3162 C.ar    1  UNL1        0.2849
     32 O         137.6948  139.4246  165.9349 O.2     1  UNL1       -0.4283
     33 C         138.2735  139.7228  164.5836 C.ar    1  UNL1        0.1964
@<TRIPOS>BOND
     1    28    29    1
     2    29    30   ar
     3    30    31   ar
     4    31    32   ar
     5    32    33   ar
     6    33    22    1
     7    22    23   ar
     8    23    24   ar
     9    24    25   ar
    10    25    21    1
    11    21    20    1
    12    20    19    1
    13    19    18    1
    14    18     1    1
    15     1     2    1
    16     2     3    1
    17     4     3    1
    18     4     5    1
    19     5     6    1
    20     6     8    1
    21     8     9   ar
    22     9    10   ar
    23    10    11   ar
    24    11    14    1
    25    14    15    1
    26    14    16    1
    27    14    17    1
    28    11    12   ar
    29    12    13   ar
    30     4     7    1
    31    25    26   ar
    32    26    27    1
    33    33    29   ar
    34    26    22   ar
    35     7     1    1
    36     6     4    1
    37    13     8   ar
@<TRIPOS>MOLECULE
*****
 33 37 0 0 0
SMALL
GASTEIGER

@<TRIPOS>ATOM
      1 N         138.2200  140.2368  162.7568 N.3     1  UNL1       -0.2726
      2 C         138.0569  138.9182  162.0606 C.3     1  UNL1        0.0721
      3 C         138.7207  137.8663  162.8988 C.3     1  UNL1        0.0190
      4 C         139.2941  138.5347  164.1131 C.3     1  UNL1        0.0201
      5 C         139.8629  137.2885  164.7242 C.3     1  UNL1        0.0061
      6 C         140.0261  138.6070  165.4204 C.3     1  UNL1        0.0237
      7 C         138.9847  139.9998  164.0253 C.3     1  UNL1        0.0724
      8 C         140.5428  139.4101  166.5771 C.ar    1  UNL1       -0.0225
      9 C         142.0163  139.4665  166.8523 C.ar    1  UNL1       -0.0043
     10 C         142.5330  140.2696  168.0090 C.ar    1  UNL1        0.0035
     11 C         141.5763  141.0162  168.8906 C.ar    1  UNL1        0.0714
     12 C         140.1028  140.9598  168.6154 C.ar    1  UNL1        0.0035
     13 C         139.5861  140.1567  167.4587 C.ar    1  UNL1       -0.0043
     14 C         142.0930  141.8193  170.0473 C.3     1  UNL1        0.4186
     15 F         142.6098  142.6223  171.2041 F       1  UNL1       -0.1659
     16 F         142.3974  142.9586  169.1204 F       1  UNL1       -0.1659
     17 F         141.7886  140.6799  170.9743 F       1  UNL1       -0.1659
     18 C         137.7083  141.5601  162.2700 C.3     1  UNL1        0.0730
     19 C         137.4271  142.6615  163.2487 C.3     1  UNL1        0.0294
     20 C         137.8036  144.0749  162.9160 C.3     1  UNL1        0.0666
     21 S         138.8778  144.7692  163.6996 S.3     1  UNL1       -0.0756
     22 C         142.1218  142.7496  164.3806 C.ar    1  UNL1        0.2029
     23 N         141.5250  142.8118  165.7554 N.ar    1  UNL1       -0.1250
     24 N         140.2372  143.5759  165.6676 N.ar    1  UNL1       -0.1220
     25 C         140.0380  143.9860  164.2385 C.ar    1  UNL1        0.1933
     26 N         141.2027  143.4753  163.4431 N.ar    1  UNL1       -0.2860
     27 C         141.4117  143.6582  161.9690 C.3     1  UNL1        0.1341
     28 C         142.4216  139.9293  162.7663 C.3     1  UNL1        0.0556
     29 C         143.5489  140.7831  163.2666 C.ar    1  UNL1        0.1001
     30 N         145.0120  140.4904  163.1127 N.ar    1  UNL1       -0.2085
     31 C         145.7785  141.6059  163.7596 C.ar    1  UNL1        0.2849
     32 O         144.7890  142.5879  164.3132 O.2     1  UNL1       -0.4283
     33 C         143.4111  142.0794  164.0086 C.ar    1  UNL1        0.1964
@<TRIPOS>BOND
     1    28    29    1
     2    29    30   ar
     3    30    31   ar
     4    31    32   ar
     5    32    33   ar
     6    33    22    1
     7    22    23   ar
     8    23    24   ar
     9    24    25   ar
    10    25    21    1
    11    21    20    1
    12    20    19    1
    13    19    18    1
    14    18     1    1
    15     1     2    1
    16     2     3    1
    17     4     3    1
    18     4     5    1
    19     5     6    1
    20     6     8    1
    21     8     9   ar
    22     9    10   ar
    23    10    11   ar
    24    11    14    1
    25    14    15    1
    26    14    16    1
    27    14    17    1
    28    11    12   ar
    29    12    13   ar
    30     4     7    1
    31    25    26   ar
    32    26    27    1
    33    33    29   ar
    34    26    22   ar
    35     7     1    1
    36     6     4    1
    37    13     8   ar
@<TRIPOS>MOLECULE
*****
 33 37 0 0 0
SMALL
GASTEIGER

@<TRIPOS>ATOM
      1 N         138.1716  140.5872  162.7496 N.3     1  UNL1       -0.2726
      2 C         137.9621  139.2981  162.0119 C.3     1  UNL1        0.0721
      3 C         138.5348  138.1894  162.8443 C.3     1  UNL1        0.0190
      4 C         139.0981  138.7933  164.0965 C.3     1  UNL1        0.0201
      5 C         139.5737  137.5019  164.6931 C.3     1  UNL1        0.0061
      6 C         139.7832  138.7910  165.4309 C.3     1  UNL1        0.0237
      7 C         138.8736  140.2753  164.0380 C.3     1  UNL1        0.0724
      8 C         140.2996  139.5340  166.6273 C.ar    1  UNL1       -0.0225
      9 C         139.3657  139.9032  167.7415 C.ar    1  UNL1       -0.0043
     10 C         139.8821  140.6462  168.9378 C.ar    1  UNL1        0.0035
     11 C         141.3324  141.0199  169.0200 C.ar    1  UNL1        0.0714
     12 C         142.2664  140.6507  167.9057 C.ar    1  UNL1        0.0035
     13 C         141.7499  139.9078  166.7094 C.ar    1  UNL1       -0.0043
     14 C         141.8488  141.7629  170.2163 C.3     1  UNL1        0.4186
     15 F         142.3653  142.5059  171.4127 F       1  UNL1       -0.1659
     16 F         141.1584  140.7859  171.1211 F       1  UNL1       -0.1659
     17 F         142.5393  142.7399  169.3115 F       1  UNL1       -0.1659
     18 C         137.7525  141.9493  162.2813 C.3     1  UNL1        0.0730
     19 C         137.6690  143.0852  163.2574 C.3     1  UNL1        0.0294
     20 C         137.9430  144.4877  162.8013 C.3     1  UNL1        0.0666
     21 S         139.2335  145.1576  163.1699 S.3     1  UNL1       -0.0756
     22 C         142.6006  143.2985  162.6481 C.ar    1  UNL1        0.2029
     23 N         142.4901  144.0644  161.3631 N.ar    1  UNL1       -0.1250
     24 N         141.2153  144.8540  161.4021 N.ar    1  UNL1       -0.1220
     25 C         140.5380  144.5761  162.7113 C.ar    1  UNL1        0.1933
     26 N         141.3940  143.6148  163.4814 N.ar    1  UNL1       -0.2860
     27 C         141.0960  143.0661  164.8452 C.3     1  UNL1        0.1341
     28 C         142.4129  140.0504  162.9021 C.3     1  UNL1        0.0556
     29 C         143.6346  140.8850  163.1491 C.ar    1  UNL1        0.1001
     30 N         144.9845  140.3732  163.5562 N.ar    1  UNL1       -0.2085
     31 C         145.9051  141.5498  163.6910 C.ar    1  UNL1        0.2849
     32 O         145.1241  142.7888  163.3673 O.2     1  UNL1       -0.4283
     33 C         143.7209  142.3779  163.0323 C.ar    1  UNL1        0.1964
@<TRIPOS>BOND
     1    28    29    1
     2    29    30   ar
     3    30    31   ar
     4    31    32   ar
     5    32    33   ar
     6    33    22    1
     7    22    23   ar
     8    23    24   ar
     9    24    25   ar
    10    25    21    1
    11    21    20    1
    12    20    19    1
    13    19    18    1
    14    18     1    1
    15     1     2    1
    16     2     3    1
    17     4     3    1
    18     4     5    1
    19     5     6    1
    20     6     8    1
    21     8     9   ar
    22     9    10   ar
    23    10    11   ar
    24    11    14    1
    25    14    15    1
    26    14    16    1
    27    14    17    1
    28    11    12   ar
    29    12    13   ar
    30     4     7    1
    31    25    26   ar
    32    26    27    1
    33    33    29   ar
    34    26    22   ar
    35     7     1    1
    36     6     4    1
    37    13     8   ar
@<TRIPOS>MOLECULE
*****
 33 37 0 0 0
SMALL
GASTEIGER

@<TRIPOS>ATOM
      1 N         141.2847  138.0922  163.5091 N.3     1  UNL1       -0.2726
      2 C         140.0038  137.3887  163.1706 C.3     1  UNL1        0.0721
      3 C         139.0067  137.6977  164.2477 C.3     1  UNL1        0.0190
      4 C         139.6713  138.5922  165.2519 C.3     1  UNL1        0.0201
      5 C         138.4833  138.7198  166.1588 C.3     1  UNL1        0.0061
      6 C         139.7641  139.4232  166.4973 C.3     1  UNL1        0.0237
      7 C         141.0792  138.8359  164.7954 C.3     1  UNL1        0.0724
      8 C         140.5572  140.3091  167.4116 C.ar    1  UNL1       -0.0225
      9 C         141.7150  139.7471  168.1823 C.ar    1  UNL1       -0.0043
     10 C         142.5081  140.6330  169.0967 C.ar    1  UNL1        0.0035
     11 C         142.1435  142.0809  169.2404 C.ar    1  UNL1        0.0714
     12 C         140.9857  142.6429  168.4698 C.ar    1  UNL1        0.0035
     13 C         140.1926  141.7570  167.5554 C.ar    1  UNL1       -0.0043
     14 C         142.9366  142.9668  170.1548 C.3     1  UNL1        0.4186
     15 F         143.7297  143.8528  171.0692 F       1  UNL1       -0.1659
     16 F         144.1021  142.0281  170.0533 F       1  UNL1       -0.1659
     17 F         141.7710  143.9055  170.2563 F       1  UNL1       -0.1659
     18 C         142.5491  138.0579  162.7029 C.3     1  UNL1        0.0730
     19 C         142.6209  138.7789  161.3895 C.3     1  UNL1        0.0294
     20 C         143.8689  139.5178  161.0067 C.3     1  UNL1        0.0666
     21 S         144.0986  140.9125  161.5088 S.3     1  UNL1       -0.0756
     22 C         141.5196  142.4995  163.9369 C.ar    1  UNL1        0.2029
     23 N         142.5578  142.0044  164.8998 N.ar    1  UNL1       -0.1250
     24 N         143.6502  141.3496  164.1074 N.ar    1  UNL1       -0.1220
     25 C         143.2873  141.4401  162.6548 C.ar    1  UNL1        0.1933
     26 N         141.9705  142.1507  162.5494 N.ar    1  UNL1       -0.2860
     27 C         141.2339  142.4586  161.2795 C.3     1  UNL1        0.1341
     28 C         138.4869  141.3763  163.5004 C.3     1  UNL1        0.0556
     29 C         138.8591  142.7011  164.0975 C.ar    1  UNL1        0.1001
     30 N         137.9026  143.7422  164.5988 N.ar    1  UNL1       -0.2085
     31 C         138.7055  144.9019  165.1092 C.ar    1  UNL1        0.2849
     32 O         140.1581  144.5775  164.9234 O.2     1  UNL1       -0.4283
     33 C         140.2530  143.2174  164.2981 C.ar    1  UNL1        0.1964
@<TRIPOS>BOND
     1    28    29    1
     2    29    30   ar
     3    30    31   ar
     4    31    32   ar
     5    32    33   ar
     6    33    22    1
     7    22    23   ar
     8    23    24   ar
     9    24    25   ar
    10    25    21    1
    11    21    20    1
    12    20    19    1
    13    19    18    1
    14    18     1    1
    15     1     2    1
    16     2     3    1
    17     4     3    1
    18     4     5    1
    19     5     6    1
    20     6     8    1
    21     8     9   ar
    22     9    10   ar
    23    10    11   ar
    24    11    14    1
    25    14    15    1
    26    14    16    1
    27    14    17    1
    28    11    12   ar
    29    12    13   ar
    30     4     7    1
    31    25    26   ar
    32    26    27    1
    33    33    29   ar
    34    26    22   ar
    35     7     1    1
    36     6     4    1
    37    13     8   ar
@<TRIPOS>MOLECULE
*****
 33 37 0 0 0
SMALL
GASTEIGER

@<TRIPOS>ATOM
      1 N         138.1533  141.6301  162.8061 N.3     1  UNL1       -0.2726
      2 C         137.6904  143.0032  162.4185 C.3     1  UNL1        0.0721
      3 C         138.1310  143.9596  163.4868 C.3     1  UNL1        0.0190
      4 C         138.8662  143.1775  164.5346 C.3     1  UNL1        0.0201
      5 C         139.1661  144.3486  165.4227 C.3     1  UNL1        0.0061
      6 C         139.6291  142.9754  165.8102 C.3     1  UNL1        0.0237
      7 C         138.8800  141.7378  164.1139 C.3     1  UNL1        0.0724
      8 C         140.3368  142.0660  166.7705 C.ar    1  UNL1       -0.0225
      9 C         141.6593  142.4711  167.3510 C.ar    1  UNL1       -0.0043
     10 C         142.3670  141.5616  168.3112 C.ar    1  UNL1        0.0035
     11 C         141.7522  140.2471  168.6909 C.ar    1  UNL1        0.0714
     12 C         140.4298  139.8421  168.1103 C.ar    1  UNL1        0.0035
     13 C         139.7220  140.7515  167.1501 C.ar    1  UNL1       -0.0043
     14 C         142.4599  139.3377  169.6511 C.3     1  UNL1        0.4186
     15 F         143.1677  138.4282  170.6114 F       1  UNL1       -0.1659
     16 F         142.9471  138.5045  168.5029 F       1  UNL1       -0.1659
     17 F         141.9728  140.1709  170.7993 F       1  UNL1       -0.1659
     18 C         137.9290  140.3704  162.0233 C.3     1  UNL1        0.0730
     19 C         138.3946  139.0539  162.5712 C.3     1  UNL1        0.0294
     20 C         139.2674  138.1616  161.7392 C.3     1  UNL1        0.0666
     21 S         140.7354  138.0643  162.0313 S.3     1  UNL1       -0.0756
     22 C         142.4356  141.2948  163.3498 C.ar    1  UNL1        0.2029
     23 N         142.5310  140.4050  164.5537 N.ar    1  UNL1       -0.1250
     24 N         141.9057  139.0865  164.2063 N.ar    1  UNL1       -0.1220
     25 C         141.4239  139.1615  162.7877 C.ar    1  UNL1        0.1933
     26 N         141.7514  140.5262  162.2584 N.ar    1  UNL1       -0.2860
     27 C         141.4479  141.0334  160.8798 C.3     1  UNL1        0.1341
     28 C         144.8916  142.3349  161.4694 C.3     1  UNL1        0.0556
     29 C         144.0654  143.1835  162.3899 C.ar    1  UNL1        0.1001
     30 N         144.2231  144.6592  162.6077 N.ar    1  UNL1       -0.2085
     31 C         143.1917  145.0932  163.6066 C.ar    1  UNL1        0.2849
     32 O         142.3966  143.8857  164.0062 O.2     1  UNL1       -0.4283
     33 C         142.9366  142.7055  163.2542 C.ar    1  UNL1        0.1964
@<TRIPOS>BOND
     1    28    29    1
     2    29    30   ar
     3    30    31   ar
     4    31    32   ar
     5    32    33   ar
     6    33    22    1
     7    22    23   ar
     8    23    24   ar
     9    24    25   ar
    10    25    21    1
    11    21    20    1
    12    20    19    1
    13    19    18    1
    14    18     1    1
    15     1     2    1
    16     2     3    1
    17     4     3    1
    18     4     5    1
    19     5     6    1
    20     6     8    1
    21     8     9   ar
    22     9    10   ar
    23    10    11   ar
    24    11    14    1
    25    14    15    1
    26    14    16    1
    27    14    17    1
    28    11    12   ar
    29    12    13   ar
    30     4     7    1
    31    25    26   ar
    32    26    27    1
    33    33    29   ar
    34    26    22   ar
    35     7     1    1
    36     6     4    1
    37    13     8   ar
@<TRIPOS>MOLECULE
*****
 33 37 0 0 0
SMALL
GASTEIGER

@<TRIPOS>ATOM
      1 N         140.8894  144.4421  162.5383 N.3     1  UNL1       -0.2726
      2 C         139.6248  145.0746  162.0378 C.3     1  UNL1        0.0721
      3 C         138.5049  144.6486  162.9403 C.3     1  UNL1        0.0190
      4 C         139.0774  143.7528  163.9985 C.3     1  UNL1        0.0201
      5 C         137.7811  143.5032  164.7108 C.3     1  UNL1        0.0061
      6 C         139.0458  142.8707  165.2113 C.3     1  UNL1        0.0237
      7 C         140.5512  143.6252  163.7501 C.3     1  UNL1        0.0724
      8 C         139.7578  141.9963  166.2005 C.ar    1  UNL1       -0.0225
      9 C         139.3541  140.5603  166.3588 C.ar    1  UNL1       -0.0043
     10 C         140.0661  139.6858  167.3480 C.ar    1  UNL1        0.0035
     11 C         141.1816  140.2474  168.1788 C.ar    1  UNL1        0.0714
     12 C         141.5852  141.6834  168.0204 C.ar    1  UNL1        0.0035
     13 C         140.8733  142.5578  167.0312 C.ar    1  UNL1       -0.0043
     14 C         141.8936  139.3729  169.1679 C.3     1  UNL1        0.4186
     15 F         142.6055  138.4985  170.1572 F       1  UNL1       -0.1659
     16 F         142.8924  138.9948  168.1147 F       1  UNL1       -0.1659
     17 F         140.8947  139.7511  170.2212 F       1  UNL1       -0.1659
     18 C         142.2530  144.5989  161.9333 C.3     1  UNL1        0.0730
     19 C         143.4760  144.3667  162.7702 C.3     1  UNL1        0.0294
     20 C         144.6749  143.6896  162.1748 C.3     1  UNL1        0.0666
     21 S         144.7898  142.1946  162.2168 S.3     1  UNL1       -0.0756
     22 C         141.7671  140.0706  163.4076 C.ar    1  UNL1        0.2029
     23 N         142.5522  140.1964  164.6796 N.ar    1  UNL1       -0.1250
     24 N         143.7800  141.0073  164.3884 N.ar    1  UNL1       -0.1220
     25 C         143.7538  141.3828  162.9363 C.ar    1  UNL1        0.1933
     26 N         142.5099  140.8039  162.3302 N.ar    1  UNL1       -0.2860
     27 C         142.0834  140.9352  160.8981 C.3     1  UNL1        0.1341
     28 C         141.1617  137.0002  164.3325 C.3     1  UNL1        0.0556
     29 C         140.1894  137.9286  163.6673 C.ar    1  UNL1        0.1001
     30 N         138.7680  137.6087  163.3103 N.ar    1  UNL1       -0.2085
     31 C         138.1679  138.8223  162.6645 C.ar    1  UNL1        0.2849
     32 O         139.2183  139.8923  162.6224 O.2     1  UNL1       -0.4283
     33 C         140.4676  139.3399  163.2421 C.ar    1  UNL1        0.1964
@<TRIPOS>BOND
     1    28    29    1
     2    29    30   ar
     3    30    31   ar
     4    31    32   ar
     5    32    33   ar
     6    33    22    1
     7    22    23   ar
     8    23    24   ar
     9    24    25   ar
    10    25    21    1
    11    21    20    1
    12    20    19    1
    13    19    18    1
    14    18     1    1
    15     1     2    1
    16     2     3    1
    17     4     3    1
    18     4     5    1
    19     5     6    1
    20     6     8    1
    21     8     9   ar
    22     9    10   ar
    23    10    11   ar
    24    11    14    1
    25    14    15    1
    26    14    16    1
    27    14    17    1
    28    11    12   ar
    29    12    13   ar
    30     4     7    1
    31    25    26   ar
    32    26    27    1
    33    33    29   ar
    34    26    22   ar
    35     7     1    1
    36     6     4    1
    37    13     8   ar
@<TRIPOS>MOLECULE
*****
 33 37 0 0 0
SMALL
GASTEIGER

@<TRIPOS>ATOM
      1 N         141.0671  138.3666  163.4547 N.3     1  UNL1       -0.2726
      2 C         139.7949  137.6271  163.1638 C.3     1  UNL1        0.0721
      3 C         138.8565  137.8493  164.3127 C.3     1  UNL1        0.0190
      4 C         139.5487  138.7261  165.3137 C.3     1  UNL1        0.0201
      5 C         138.4161  138.7668  166.2963 C.3     1  UNL1        0.0061
      6 C         139.6883  139.5063  166.5873 C.3     1  UNL1        0.0237
      7 C         140.9150  139.0458  164.7835 C.3     1  UNL1        0.0724
      8 C         140.5034  140.3836  167.4905 C.ar    1  UNL1       -0.0225
      9 C         140.2080  141.8517  167.5767 C.ar    1  UNL1       -0.0043
     10 C         141.0231  142.7290  168.4800 C.ar    1  UNL1        0.0035
     11 C         142.1337  142.1382  169.2970 C.ar    1  UNL1        0.0714
     12 C         142.4291  140.6701  169.2108 C.ar    1  UNL1        0.0035
     13 C         141.6140  139.7928  168.3076 C.ar    1  UNL1       -0.0043
     14 C         142.9488  143.0155  170.2002 C.3     1  UNL1        0.4186
     15 F         143.7639  143.8929  171.1035 F       1  UNL1       -0.1659
     16 F         144.1159  142.0852  170.0506 F       1  UNL1       -0.1659
     17 F         141.7817  143.9458  170.3499 F       1  UNL1       -0.1659
     18 C         142.2787  138.4178  162.5720 C.3     1  UNL1        0.0730
     19 C         143.6482  138.4785  163.1808 C.3     1  UNL1        0.0294
     20 C         144.3938  139.7795  163.2219 C.3     1  UNL1        0.0666
     21 S         143.8016  140.9613  163.9308 S.3     1  UNL1       -0.0756
     22 C         142.5687  143.9781  161.8226 C.ar    1  UNL1        0.2029
     23 N         143.9105  144.4711  162.2771 N.ar    1  UNL1       -0.1250
     24 N         144.5357  143.4010  163.1222 N.ar    1  UNL1       -0.1220
     25 C         143.5802  142.2466  163.1899 C.ar    1  UNL1        0.1933
     26 N         142.3646  142.6032  162.3868 N.ar    1  UNL1       -0.2860
     27 C         141.1569  141.7372  162.1834 C.3     1  UNL1        0.1341
     28 C         139.7262  145.2595  162.7857 C.3     1  UNL1        0.0556
     29 C         140.2945  145.3172  161.3987 C.ar    1  UNL1        0.1001
     30 N         139.6560  145.9740  160.2109 N.ar    1  UNL1       -0.2085
     31 C         140.5679  145.7909  159.0341 C.ar    1  UNL1        0.2849
     32 O         141.7701  145.0210  159.4946 O.2     1  UNL1       -0.4283
     33 C         141.6010  144.7282  160.9560 C.ar    1  UNL1        0.1964
@<TRIPOS>BOND
     1    28    29    1
     2    29    30   ar
     3    30    31   ar
     4    31    32   ar
     5    32    33   ar
     6    33    22    1
     7    22    23   ar
     8    23    24   ar
     9    24    25   ar
    10    25    21    1
    11    21    20    1
    12    20    19    1
    13    19    18    1
    14    18     1    1
    15     1     2    1
    16     2     3    1
    17     4     3    1
    18     4     5    1
    19     5     6    1
    20     6     8    1
    21     8     9   ar
    22     9    10   ar
    23    10    11   ar
    24    11    14    1
    25    14    15    1
    26    14    16    1
    27    14    17    1
    28    11    12   ar
    29    12    13   ar
    30     4     7    1
    31    25    26   ar
    32    26    27    1
    33    33    29   ar
    34    26    22   ar
    35     7     1    1
    36     6     4    1
    37    13     8   ar
@<TRIPOS>MOLECULE
*****
 33 37 0 0 0
SMALL
GASTEIGER

@<TRIPOS>ATOM
      1 N         143.7735  142.9963  163.5307 N.3     1  UNL1       -0.2726
      2 C         144.9498  142.3228  162.8883 C.3     1  UNL1        0.0721
      3 C         145.0881  140.9566  163.4918 C.3     1  UNL1        0.0190
      4 C         143.9973  140.7857  164.5071 C.3     1  UNL1        0.0201
      5 C         144.3804  139.3943  164.9162 C.3     1  UNL1        0.0061
      6 C         143.2041  140.0678  165.5586 C.3     1  UNL1        0.0237
      7 C         143.1848  142.0463  164.5312 C.3     1  UNL1        0.0724
      8 C         142.0670  140.0422  166.5365 C.ar    1  UNL1       -0.0225
      9 C         142.3425  140.1159  168.0092 C.ar    1  UNL1       -0.0043
     10 C         141.2054  140.0903  168.9871 C.ar    1  UNL1        0.0035
     11 C         139.7929  139.9911  168.4923 C.ar    1  UNL1        0.0714
     12 C         139.5174  139.9174  167.0197 C.ar    1  UNL1        0.0035
     13 C         140.6545  139.9430  166.0418 C.ar    1  UNL1       -0.0043
     14 C         138.6558  139.9655  169.4703 C.3     1  UNL1        0.4186
     15 F         137.5186  139.9399  170.4483 F       1  UNL1       -0.1659
     16 F         137.8193  139.2134  168.4780 F       1  UNL1       -0.1659
     17 F         139.4923  140.7175  170.4626 F       1  UNL1       -0.1659
     18 C         143.2736  144.3774  163.2261 C.3     1  UNL1        0.0730
     19 C         141.8736  144.7671  163.5976 C.3     1  UNL1        0.0294
     20 C         141.1183  145.7481  162.7505 C.3     1  UNL1        0.0666
     21 S         140.1630  145.2558  161.7041 S.3     1  UNL1       -0.0756
     22 C         138.6112  141.7236  162.1296 C.ar    1  UNL1        0.2029
     23 N         137.4828  142.5943  162.5972 N.ar    1  UNL1       -0.1250
     24 N         137.9268  144.0234  162.4948 N.ar    1  UNL1       -0.1220
     25 C         139.3296  144.0360  161.9638 C.ar    1  UNL1        0.1933
     26 N         139.7526  142.6147  161.7380 N.ar    1  UNL1       -0.2860
     27 C         141.0834  142.1637  161.2130 C.3     1  UNL1        0.1341
     28 C         138.6237  139.9211  159.4092 C.3     1  UNL1        0.0556
     29 C         138.6059  139.3966  160.8143 C.ar    1  UNL1        0.1001
     30 N         138.5907  137.9514  161.2158 N.ar    1  UNL1       -0.2085
     31 C         138.5756  137.8867  162.7144 C.ar    1  UNL1        0.2849
     32 O         138.5814  139.2919  163.2390 O.2     1  UNL1       -0.4283
     33 C         138.6001  140.2250  162.0648 C.ar    1  UNL1        0.1964
@<TRIPOS>BOND
     1    28    29    1
     2    29    30   ar
     3    30    31   ar
     4    31    32   ar
     5    32    33   ar
     6    33    22    1
     7    22    23   ar
     8    23    24   ar
     9    24    25   ar
    10    25    21    1
    11    21    20    1
    12    20    19    1
    13    19    18    1
    14    18     1    1
    15     1     2    1
    16     2     3    1
    17     4     3    1
    18     4     5    1
    19     5     6    1
    20     6     8    1
    21     8     9   ar
    22     9    10   ar
    23    10    11   ar
    24    11    14    1
    25    14    15    1
    26    14    16    1
    27    14    17    1
    28    11    12   ar
    29    12    13   ar
    30     4     7    1
    31    25    26   ar
    32    26    27    1
    33    33    29   ar
    34    26    22   ar
    35     7     1    1
    36     6     4    1
    37    13     8   ar
