@<TRIPOS>MOLECULE
*****
 29 32 0 0 0
SMALL
GASTEIGER

@<TRIPOS>ATOM
      1 C         142.2426  142.0914  169.6618 C.2     1  UNL1        0.1571
      2 N         141.9529  142.3135  171.1167 N.2     1  UNL1       -0.1436
      3 N         140.6468  141.6485  171.4359 N.2     1  UNL1       -0.1519
      4 C         140.1293  141.0155  170.1784 C.2     1  UNL1        0.0865
      5 C         138.8874  140.2253  169.8900 C.3     1  UNL1        0.0736
      6 C         138.6318  139.7087  168.5052 C.2     1  UNL1       -0.0197
      7 C         139.6182  139.9824  167.4087 C.2     1  UNL1       -0.0023
      8 C         140.8600  140.7727  167.6970 C.2     1  UNL1        0.0027
      9 C         141.1156  141.2892  169.0819 C.2     1  UNL1        0.0395
     10 C         139.3625  139.4658  166.0238 C.ar    1  UNL1        0.0186
     11 C         138.1747  139.9538  165.2487 C.ar    1  UNL1        0.0988
     12 N         137.9191  139.4372  163.8638 N.ar    1  UNL1       -0.2426
     13 C         138.8513  138.4327  163.2541 C.ar    1  UNL1        0.0970
     14 C         140.0392  137.9447  164.0293 C.ar    1  UNL1        0.0261
     15 C         140.2948  138.4613  165.4141 C.ar    1  UNL1        0.0012
     16 C         140.9715  136.9401  163.4196 C.3     1  UNL1        0.1651
     17 O         141.5591  137.1894  162.0621 O.3     1  UNL1       -0.3772
     18 H         140.8528  137.1799  161.3973 H       1  UNL1        0.2109
     19 O         144.7048  142.9207  169.6639 O.2     1  UNL1       -0.2684
     20 C         143.4479  142.5848  168.9175 C.2     1  UNL1        0.2654
     21 N         143.3961  142.7424  167.4266 N.am    1  UNL1       -0.2996
     22 H         142.5711  142.5219  166.9367 H       1  UNL1        0.1498
     23 C         144.6013  143.2358  166.6823 C.3     1  UNL1        0.0899
     24 C         144.5706  143.3331  165.1858 C.3     1  UNL1        0.0246
     25 C         145.1410  142.2254  164.3505 C.3     1  UNL1        0.0338
     26 C         145.1103  142.3226  162.8538 C.3     1  UNL1        0.1422
     27 O         144.5093  143.5274  162.1927 O.3     1  UNL1       -0.3538
     28 C         143.9389  144.6350  163.0281 C.3     1  UNL1        0.1422
     29 C         143.9696  144.5379  164.5246 C.3     1  UNL1        0.0338
@<TRIPOS>BOND
     1    19    20    2
     2    20    21   am
     3    21    23    1
     4    23    24    1
     5    24    25    1
     6    25    26    1
     7    26    27    1
     8    27    28    1
     9    28    29    1
    10    20     1    1
    11     1     2    2
    12     2     3    1
    13     3     4    2
    14     4     5    1
    15     5     6    1
    16     6     7    2
    17     7    10    1
    18    10    11   ar
    19    11    12   ar
    20    12    13   ar
    21    13    14   ar
    22    14    16    1
    23    16    17    1
    24    14    15   ar
    25     7     8    1
    26     8     9    2
    27    29    24    1
    28     9     1    1
    29     9     4    1
    30    15    10   ar
    31    21    22    1
    32    17    18    1
@<TRIPOS>MOLECULE
*****
 29 32 0 0 0
SMALL
GASTEIGER

@<TRIPOS>ATOM
      1 C         141.1354  141.4520  168.8446 C.2     1  UNL1        0.1571
      2 N         140.5864  141.4811  170.2402 N.2     1  UNL1       -0.1436
      3 N         139.3425  140.6432  170.2664 N.2     1  UNL1       -0.1519
      4 C         139.1228  140.0963  168.8871 C.2     1  UNL1        0.0865
      5 C         138.0569  139.2077  168.3177 C.3     1  UNL1        0.0736
      6 C         138.0991  138.8189  166.8696 C.2     1  UNL1       -0.0197
      7 C         139.2072  139.3188  165.9908 C.2     1  UNL1       -0.0023
      8 C         140.2731  140.2075  166.5602 C.2     1  UNL1        0.0027
      9 C         140.2309  140.5962  168.0083 C.2     1  UNL1        0.0395
     10 C         139.2494  138.9301  164.5427 C.ar    1  UNL1        0.0186
     11 C         140.0790  137.7600  164.1041 C.ar    1  UNL1        0.0988
     12 N         140.1212  137.3712  162.6559 N.ar    1  UNL1       -0.2426
     13 C         139.3337  138.1526  161.6463 C.ar    1  UNL1        0.0970
     14 C         138.5040  139.3228  162.0850 C.ar    1  UNL1        0.0261
     15 C         138.4618  139.7115  163.5331 C.ar    1  UNL1        0.0012
     16 C         137.7165  140.1043  161.0755 C.3     1  UNL1        0.1651
     17 O         136.4157  139.5650  160.5583 O.3     1  UNL1       -0.3772
     18 H         136.5811  138.7581  160.0460 H       1  UNL1        0.2109
     19 O         143.2980  142.7969  169.3590 O.2     1  UNL1       -0.2684
     20 C         142.3719  142.1553  168.3687 C.2     1  UNL1        0.2654
     21 N         142.6824  142.2171  166.9024 N.am    1  UNL1       -0.2996
     22 H         142.0746  141.7960  166.2524 H       1  UNL1        0.1498
     23 C         143.9189  142.9204  166.4266 C.3     1  UNL1        0.0899
     24 C         144.1915  143.0462  164.9570 C.3     1  UNL1        0.0246
     25 C         144.9134  141.9495  164.2316 C.3     1  UNL1        0.0338
     26 C         145.1861  142.0753  162.7619 C.3     1  UNL1        0.1422
     27 O         144.7369  143.2976  162.0176 O.3     1  UNL1       -0.3538
     28 C         144.0149  144.3943  162.7431 C.3     1  UNL1        0.1422
     29 C         143.7423  144.2686  164.2127 C.3     1  UNL1        0.0338
@<TRIPOS>BOND
     1    19    20    2
     2    20    21   am
     3    21    23    1
     4    23    24    1
     5    24    25    1
     6    25    26    1
     7    26    27    1
     8    27    28    1
     9    28    29    1
    10    20     1    1
    11     1     2    2
    12     2     3    1
    13     3     4    2
    14     4     5    1
    15     5     6    1
    16     6     7    2
    17     7    10    1
    18    10    11   ar
    19    11    12   ar
    20    12    13   ar
    21    13    14   ar
    22    14    16    1
    23    16    17    1
    24    14    15   ar
    25     7     8    1
    26     8     9    2
    27    29    24    1
    28     9     1    1
    29     9     4    1
    30    15    10   ar
    31    21    22    1
    32    17    18    1
@<TRIPOS>MOLECULE
*****
 29 32 0 0 0
SMALL
GASTEIGER

@<TRIPOS>ATOM
      1 C         140.8131  144.5196  161.1447 C.2     1  UNL1        0.1571
      2 N         140.3001  145.9206  160.9893 N.2     1  UNL1       -0.1436
      3 N         139.0662  146.0584  161.8312 N.2     1  UNL1       -0.1519
      4 C         138.8167  144.7426  162.5069 C.2     1  UNL1        0.0865
      5 C         137.7459  144.2876  163.4536 C.3     1  UNL1        0.0736
      6 C         137.7548  142.8816  163.9761 C.2     1  UNL1       -0.0197
      7 C         138.8344  141.9306  163.5519 C.2     1  UNL1       -0.0023
      8 C         139.9052  142.3856  162.6051 C.2     1  UNL1        0.0027
      9 C         139.8963  143.7916  162.0826 C.2     1  UNL1        0.0395
     10 C         138.8432  140.5246  164.0744 C.ar    1  UNL1        0.0186
     11 C         139.4637  139.4266  163.2624 C.ar    1  UNL1        0.0988
     12 N         139.4725  138.0205  163.7850 N.ar    1  UNL1       -0.2426
     13 C         138.8608  137.7125  165.1195 C.ar    1  UNL1        0.0970
     14 C         138.2403  138.8106  165.9315 C.ar    1  UNL1        0.0261
     15 C         138.2315  140.2166  165.4089 C.ar    1  UNL1        0.0012
     16 C         137.6285  138.5027  167.2660 C.3     1  UNL1        0.1651
     17 O         136.7856  137.2740  167.4391 O.3     1  UNL1       -0.3772
     18 H         135.9793  137.3574  166.9063 H       1  UNL1        0.2109
     19 O         142.3634  144.3319  159.0684 O.2     1  UNL1       -0.2684
     20 C         142.0293  143.9472  160.4791 C.2     1  UNL1        0.2654
     21 N         142.9116  142.9898  161.2244 N.am    1  UNL1       -0.2996
     22 H         142.6923  142.7372  162.1503 H       1  UNL1        0.1498
     23 C         144.1278  142.4173  160.5588 C.3     1  UNL1        0.0899
     24 C         143.9805  141.3367  159.5289 C.3     1  UNL1        0.0246
     25 C         144.4943  141.5529  158.1364 C.3     1  UNL1        0.0338
     26 C         144.3470  140.4722  157.1064 C.3     1  UNL1        0.1422
     27 O         143.6859  139.1755  157.4691 O.3     1  UNL1       -0.3538
     28 C         143.1721  138.9595  158.8617 C.3     1  UNL1        0.1422
     29 C         143.3194  140.0400  159.8916 C.3     1  UNL1        0.0338
@<TRIPOS>BOND
     1    19    20    2
     2    20    21   am
     3    21    23    1
     4    23    24    1
     5    24    25    1
     6    25    26    1
     7    26    27    1
     8    27    28    1
     9    28    29    1
    10    20     1    1
    11     1     2    2
    12     2     3    1
    13     3     4    2
    14     4     5    1
    15     5     6    1
    16     6     7    2
    17     7    10    1
    18    10    11   ar
    19    11    12   ar
    20    12    13   ar
    21    13    14   ar
    22    14    16    1
    23    16    17    1
    24    14    15   ar
    25     7     8    1
    26     8     9    2
    27    29    24    1
    28     9     1    1
    29     9     4    1
    30    15    10   ar
    31    21    22    1
    32    17    18    1
@<TRIPOS>MOLECULE
*****
 29 32 0 0 0
SMALL
GASTEIGER

@<TRIPOS>ATOM
      1 C         140.7738  141.0615  168.3350 C.2     1  UNL1        0.1571
      2 N         140.1002  140.9558  169.6711 N.2     1  UNL1       -0.1436
      3 N         138.9108  140.0543  169.5204 N.2     1  UNL1       -0.1519
      4 C         138.8493  139.6030  168.0912 C.2     1  UNL1        0.0865
      5 C         137.8937  138.7056  167.3623 C.3     1  UNL1        0.0736
      6 C         138.0894  138.4307  165.9008 C.2     1  UNL1       -0.0197
      7 C         139.2408  139.0532  165.1682 C.2     1  UNL1       -0.0023
      8 C         140.1965  139.9506  165.8971 C.2     1  UNL1        0.0027
      9 C         140.0007  140.2255  167.3586 C.2     1  UNL1        0.0395
     10 C         139.4366  138.7783  163.7066 C.ar    1  UNL1        0.0186
     11 C         138.2475  138.5605  162.8186 C.ar    1  UNL1        0.0988
     12 N         138.4432  138.2856  161.3570 N.ar    1  UNL1       -0.2426
     13 C         139.8281  138.2285  160.7835 C.ar    1  UNL1        0.0970
     14 C         141.0172  138.4462  161.6716 C.ar    1  UNL1        0.0261
     15 C         140.8214  138.7211  163.1331 C.ar    1  UNL1        0.0012
     16 C         142.4021  138.3890  161.0981 C.3     1  UNL1        0.1651
     17 O         143.1684  137.0996  161.1154 O.3     1  UNL1       -0.3772
     18 H         143.3622  136.8510  162.0328 H       1  UNL1        0.2109
     19 O         142.7643  142.5242  169.1403 O.2     1  UNL1       -0.2684
     20 C         142.0044  141.8627  168.0291 C.2     1  UNL1        0.2654
     21 N         142.4753  142.0024  166.6117 N.am    1  UNL1       -0.2996
     22 H         141.9766  141.5683  165.8822 H       1  UNL1        0.1498
     23 C         143.7059  142.8036  166.3057 C.3     1  UNL1        0.0899
     24 C         144.0965  143.0636  164.8810 C.3     1  UNL1        0.0246
     25 C         143.7026  144.3504  164.2183 C.3     1  UNL1        0.0338
     26 C         144.0931  144.6105  162.7935 C.3     1  UNL1        0.1422
     27 O         144.8775  143.5838  162.0315 O.3     1  UNL1       -0.3538
     28 C         145.2714  142.2971  162.6943 C.3     1  UNL1        0.1422
     29 C         144.8809  142.0370  164.1190 C.3     1  UNL1        0.0338
@<TRIPOS>BOND
     1    19    20    2
     2    20    21   am
     3    21    23    1
     4    23    24    1
     5    24    25    1
     6    25    26    1
     7    26    27    1
     8    27    28    1
     9    28    29    1
    10    20     1    1
    11     1     2    2
    12     2     3    1
    13     3     4    2
    14     4     5    1
    15     5     6    1
    16     6     7    2
    17     7    10    1
    18    10    11   ar
    19    11    12   ar
    20    12    13   ar
    21    13    14   ar
    22    14    16    1
    23    16    17    1
    24    14    15   ar
    25     7     8    1
    26     8     9    2
    27    29    24    1
    28     9     1    1
    29     9     4    1
    30    15    10   ar
    31    21    22    1
    32    17    18    1
@<TRIPOS>MOLECULE
*****
 29 32 0 0 0
SMALL
GASTEIGER

@<TRIPOS>ATOM
      1 C         141.4170  139.7397  169.4992 C.2     1  UNL1        0.1571
      2 N         140.0797  139.6851  170.1763 N.2     1  UNL1       -0.1436
      3 N         139.0205  139.7962  169.1200 N.2     1  UNL1       -0.1519
      4 C         139.7033  139.9194  167.7901 C.2     1  UNL1        0.0865
      5 C         139.1677  140.0590  166.3960 C.3     1  UNL1        0.0736
      6 C         140.1132  140.1635  165.2363 C.2     1  UNL1       -0.0197
      7 C         141.5943  140.1285  165.4706 C.2     1  UNL1       -0.0023
      8 C         142.1300  139.9890  166.8648 C.2     1  UNL1        0.0027
      9 C         141.1844  139.8845  168.0245 C.2     1  UNL1        0.0395
     10 C         142.5399  140.2331  164.3108 C.ar    1  UNL1        0.0186
     11 C         143.2298  141.5329  164.0205 C.ar    1  UNL1        0.0988
     12 N         144.1753  141.6375  162.8606 N.ar    1  UNL1       -0.2426
     13 C         144.4309  140.4422  161.9913 C.ar    1  UNL1        0.0970
     14 C         143.7409  139.1423  162.2817 C.ar    1  UNL1        0.0261
     15 C         142.7955  139.0378  163.4414 C.ar    1  UNL1        0.0012
     16 C         143.9965  137.9469  161.4123 C.3     1  UNL1        0.1651
     17 O         142.8559  137.0689  160.9901 O.3     1  UNL1       -0.3772
     18 H         142.4829  136.6266  161.7687 H       1  UNL1        0.2109
     19 O         143.6231  140.8816  170.2604 O.2     1  UNL1       -0.2684
     20 C         142.7526  139.6629  170.1778 C.2     1  UNL1        0.2654
     21 N         143.2177  138.3672  170.7738 N.am    1  UNL1       -0.2996
     22 H         142.6464  137.5673  170.7195 H       1  UNL1        0.1498
     23 C         144.5532  138.2904  171.4523 C.3     1  UNL1        0.0899
     24 C         145.0550  136.9766  171.9738 C.3     1  UNL1        0.0246
     25 C         144.4549  135.6944  171.4780 C.3     1  UNL1        0.0338
     26 C         144.9566  134.3804  171.9995 C.3     1  UNL1        0.1422
     27 O         146.0584  134.3487  173.0169 O.3     1  UNL1       -0.3538
     28 C         146.6584  135.6310  173.5127 C.3     1  UNL1        0.1422
     29 C         146.1568  136.9449  172.9912 C.3     1  UNL1        0.0338
@<TRIPOS>BOND
     1    19    20    2
     2    20    21   am
     3    21    23    1
     4    23    24    1
     5    24    25    1
     6    25    26    1
     7    26    27    1
     8    27    28    1
     9    28    29    1
    10    20     1    1
    11     1     2    2
    12     2     3    1
    13     3     4    2
    14     4     5    1
    15     5     6    1
    16     6     7    2
    17     7    10    1
    18    10    11   ar
    19    11    12   ar
    20    12    13   ar
    21    13    14   ar
    22    14    16    1
    23    16    17    1
    24    14    15   ar
    25     7     8    1
    26     8     9    2
    27    29    24    1
    28     9     1    1
    29     9     4    1
    30    15    10   ar
    31    21    22    1
    32    17    18    1
@<TRIPOS>MOLECULE
*****
 29 32 0 0 0
SMALL
GASTEIGER

@<TRIPOS>ATOM
      1 C         138.3357  142.1073  162.2909 C.2     1  UNL1        0.1571
      2 N         137.6847  143.3159  161.6863 N.2     1  UNL1       -0.1436
      3 N         137.7929  144.4421  162.6712 N.2     1  UNL1       -0.1519
      4 C         138.5108  143.9296  163.8844 C.2     1  UNL1        0.0865
      5 C         138.9024  144.5905  165.1728 C.3     1  UNL1        0.0736
      6 C         139.6294  143.8083  166.2261 C.2     1  UNL1       -0.0197
      7 C         139.9649  142.3653  165.9911 C.2     1  UNL1       -0.0023
      8 C         139.5733  141.7045  164.7028 C.2     1  UNL1        0.0027
      9 C         138.8463  142.4866  163.6494 C.2     1  UNL1        0.0395
     10 C         140.6920  141.5832  167.0446 C.ar    1  UNL1        0.0186
     11 C         141.5377  140.4070  166.6556 C.ar    1  UNL1        0.0988
     12 N         142.2648  139.6249  167.7090 N.ar    1  UNL1       -0.2426
     13 C         142.1460  140.0189  169.1515 C.ar    1  UNL1        0.0970
     14 C         141.3002  141.1951  169.5405 C.ar    1  UNL1        0.0261
     15 C         140.5732  141.9772  168.4870 C.ar    1  UNL1        0.0012
     16 C         141.1815  141.5892  170.9829 C.3     1  UNL1        0.1651
     17 O         140.6443  140.6115  171.9857 O.3     1  UNL1       -0.3772
     18 H         139.7121  140.4273  171.7905 H       1  UNL1        0.2109
     19 O         138.1035  139.5233  162.4275 O.2     1  UNL1       -0.2684
     20 C         138.4552  140.7566  161.6497 C.2     1  UNL1        0.2654
     21 N         138.9264  140.6392  160.2304 N.am    1  UNL1       -0.2996
     22 H         139.1573  141.4486  159.7198 H       1  UNL1        0.1498
     23 C         139.0459  139.2884  159.5891 C.3     1  UNL1        0.0899
     24 C         140.3996  138.6857  159.3568 C.3     1  UNL1        0.0246
     25 C         140.8299  138.3216  157.9667 C.3     1  UNL1        0.0338
     26 C         142.1838  137.7188  157.7343 C.3     1  UNL1        0.1422
     27 O         143.1072  137.4801  158.8920 O.3     1  UNL1       -0.3538
     28 C         142.6768  137.8442  160.2821 C.3     1  UNL1        0.1422
     29 C         141.3231  138.4470  160.5145 C.3     1  UNL1        0.0338
@<TRIPOS>BOND
     1    19    20    2
     2    20    21   am
     3    21    23    1
     4    23    24    1
     5    24    25    1
     6    25    26    1
     7    26    27    1
     8    27    28    1
     9    28    29    1
    10    20     1    1
    11     1     2    2
    12     2     3    1
    13     3     4    2
    14     4     5    1
    15     5     6    1
    16     6     7    2
    17     7    10    1
    18    10    11   ar
    19    11    12   ar
    20    12    13   ar
    21    13    14   ar
    22    14    16    1
    23    16    17    1
    24    14    15   ar
    25     7     8    1
    26     8     9    2
    27    29    24    1
    28     9     1    1
    29     9     4    1
    30    15    10   ar
    31    21    22    1
    32    17    18    1
@<TRIPOS>MOLECULE
*****
 29 32 0 0 0
SMALL
GASTEIGER

@<TRIPOS>ATOM
      1 C         140.3474  143.7615  161.7707 C.2     1  UNL1        0.1571
      2 N         139.3641  144.7330  161.1880 N.2     1  UNL1       -0.1436
      3 N         138.5474  145.2966  162.3128 N.2     1  UNL1       -0.1519
      4 C         139.0259  144.6735  163.5907 C.2     1  UNL1        0.0865
      5 C         138.5923  144.8475  165.0160 C.3     1  UNL1        0.0736
      6 C         139.2712  144.0727  166.1063 C.2     1  UNL1       -0.0197
      7 C         140.3836  143.1240  165.7712 C.2     1  UNL1       -0.0023
      8 C         140.8172  142.9500  164.3459 C.2     1  UNL1        0.0027
      9 C         140.1383  143.7248  163.2556 C.2     1  UNL1        0.0395
     10 C         141.0625  142.3492  166.8616 C.ar    1  UNL1        0.0186
     11 C         142.0953  141.3173  166.5172 C.ar    1  UNL1        0.0988
     12 N         142.7742  140.5425  167.6076 N.ar    1  UNL1       -0.2426
     13 C         142.4203  140.7996  169.0424 C.ar    1  UNL1        0.0970
     14 C         141.3875  141.8316  169.3868 C.ar    1  UNL1        0.0261
     15 C         140.7086  142.6063  168.2964 C.ar    1  UNL1        0.0012
     16 C         141.0336  142.0887  170.8216 C.3     1  UNL1        0.1651
     17 O         142.1188  142.2472  171.8449 O.3     1  UNL1       -0.3772
     18 H         142.5956  141.4082  171.9432 H       1  UNL1        0.2109
     19 O         141.0337  142.4578  159.6308 O.2     1  UNL1       -0.2684
     20 C         141.3616  142.9664  161.0032 C.2     1  UNL1        0.2654
     21 N         142.7040  142.6798  161.6083 N.am    1  UNL1       -0.2996
     22 H         142.9193  143.0135  162.5091 H       1  UNL1        0.1498
     23 C         143.7183  141.8846  160.8408 C.3     1  UNL1        0.0899
     24 C         143.5807  140.3946  160.7371 C.3     1  UNL1        0.0246
     25 C         143.9187  139.5266  161.9129 C.3     1  UNL1        0.0338
     26 C         143.7811  138.0364  161.8092 C.3     1  UNL1        0.1422
     27 O         143.3056  137.4143  160.5298 O.3     1  UNL1       -0.3538
     28 C         142.9676  138.2824  159.3541 C.3     1  UNL1        0.1422
     29 C         143.1052  139.7724  159.4577 C.3     1  UNL1        0.0338
@<TRIPOS>BOND
     1    19    20    2
     2    20    21   am
     3    21    23    1
     4    23    24    1
     5    24    25    1
     6    25    26    1
     7    26    27    1
     8    27    28    1
     9    28    29    1
    10    20     1    1
    11     1     2    2
    12     2     3    1
    13     3     4    2
    14     4     5    1
    15     5     6    1
    16     6     7    2
    17     7    10    1
    18    10    11   ar
    19    11    12   ar
    20    12    13   ar
    21    13    14   ar
    22    14    16    1
    23    16    17    1
    24    14    15   ar
    25     7     8    1
    26     8     9    2
    27    29    24    1
    28     9     1    1
    29     9     4    1
    30    15    10   ar
    31    21    22    1
    32    17    18    1
@<TRIPOS>MOLECULE
*****
 29 32 0 0 0
SMALL
GASTEIGER

@<TRIPOS>ATOM
      1 C         141.6530  143.8911  162.0927 C.2     1  UNL1        0.1571
      2 N         142.8741  144.4518  161.4259 N.2     1  UNL1       -0.1436
      3 N         144.0141  144.3632  162.3966 N.2     1  UNL1       -0.1519
      4 C         143.4977  143.7478  163.6634 C.2     1  UNL1        0.0865
      5 C         144.1677  143.4154  164.9636 C.3     1  UNL1        0.0736
      6 C         143.3783  142.7913  166.0759 C.2     1  UNL1       -0.0197
      7 C         141.9190  142.4995  165.8880 C.2     1  UNL1       -0.0023
      8 C         141.2491  142.8318  164.5878 C.2     1  UNL1        0.0027
      9 C         142.0384  143.4560  163.4755 C.2     1  UNL1        0.0395
     10 C         141.1297  141.8753  167.0005 C.ar    1  UNL1        0.0186
     11 C         140.5384  140.5080  166.8250 C.ar    1  UNL1        0.0988
     12 N         139.7491  139.8838  167.9375 N.ar    1  UNL1       -0.2426
     13 C         139.5511  140.6269  169.2253 C.ar    1  UNL1        0.0970
     14 C         140.1424  141.9943  169.4007 C.ar    1  UNL1        0.0261
     15 C         140.9317  142.6184  168.2883 C.ar    1  UNL1        0.0012
     16 C         139.9445  142.7375  170.6885 C.3     1  UNL1        0.1651
     17 O         140.5096  142.1893  171.9653 O.3     1  UNL1       -0.3772
     18 H         140.0611  141.3582  172.1869 H       1  UNL1        0.2109
     19 O         139.2059  144.7406  161.8929 O.2     1  UNL1       -0.2684
     20 C         140.2864  143.7842  161.4836 C.2     1  UNL1        0.2654
     21 N         140.0003  142.7208  160.4650 N.am    1  UNL1       -0.2996
     22 H         140.7095  142.0930  160.1963 H       1  UNL1        0.1498
     23 C         138.6337  142.6139  159.8559 C.3     1  UNL1        0.0899
     24 C         138.4856  142.3035  158.3959 C.3     1  UNL1        0.0246
     25 C         137.8760  141.0029  157.9637 C.3     1  UNL1        0.0338
     26 C         137.7279  140.6924  156.5036 C.3     1  UNL1        0.1422
     27 O         138.1893  141.6826  155.4757 O.3     1  UNL1       -0.3538
     28 C         138.7989  142.9833  155.9080 C.3     1  UNL1        0.1422
     29 C         138.9470  143.2938  157.3680 C.3     1  UNL1        0.0338
@<TRIPOS>BOND
     1    19    20    2
     2    20    21   am
     3    21    23    1
     4    23    24    1
     5    24    25    1
     6    25    26    1
     7    26    27    1
     8    27    28    1
     9    28    29    1
    10    20     1    1
    11     1     2    2
    12     2     3    1
    13     3     4    2
    14     4     5    1
    15     5     6    1
    16     6     7    2
    17     7    10    1
    18    10    11   ar
    19    11    12   ar
    20    12    13   ar
    21    13    14   ar
    22    14    16    1
    23    16    17    1
    24    14    15   ar
    25     7     8    1
    26     8     9    2
    27    29    24    1
    28     9     1    1
    29     9     4    1
    30    15    10   ar
    31    21    22    1
    32    17    18    1
@<TRIPOS>MOLECULE
*****
 29 32 0 0 0
SMALL
GASTEIGER

@<TRIPOS>ATOM
      1 C         139.7353  140.9142  163.2467 C.2     1  UNL1        0.1571
      2 N         138.8405  140.0821  162.3767 N.2     1  UNL1       -0.1436
      3 N         138.0774  139.1418  163.2619 N.2     1  UNL1       -0.1519
      4 C         138.5005  139.3927  164.6789 C.2     1  UNL1        0.0865
      5 C         138.0852  138.7653  165.9765 C.3     1  UNL1        0.0736
      6 C         138.6945  139.2333  167.2647 C.2     1  UNL1       -0.0197
      7 C         139.7192  140.3288  167.2554 C.2     1  UNL1       -0.0023
      8 C         140.1345  140.9562  165.9578 C.2     1  UNL1        0.0027
      9 C         139.5252  140.4882  164.6696 C.2     1  UNL1        0.0395
     10 C         140.3285  140.7968  168.5437 C.ar    1  UNL1        0.0186
     11 C         139.5569  140.6790  169.8247 C.ar    1  UNL1        0.0988
     12 N         140.1663  141.1471  171.1130 N.ar    1  UNL1       -0.2426
     13 C         141.5472  141.7328  171.1203 C.ar    1  UNL1        0.0970
     14 C         142.3187  141.8505  169.8393 C.ar    1  UNL1        0.0261
     15 C         141.7094  141.3825  168.5511 C.ar    1  UNL1        0.0012
     16 C         143.6996  142.4362  169.8467 C.3     1  UNL1        0.1651
     17 O         144.0282  143.5707  170.7714 O.3     1  UNL1       -0.3772
     18 H         143.5203  144.3558  170.5132 H       1  UNL1        0.2109
     19 O         140.1775  143.3853  162.5777 O.2     1  UNL1       -0.2684
     20 C         140.6752  141.9844  162.7765 C.2     1  UNL1        0.2654
     21 N         142.1130  141.6537  162.5051 N.am    1  UNL1       -0.2996
     22 H         142.4397  140.7342  162.6357 H       1  UNL1        0.1498
     23 C         143.0529  142.7240  162.0349 C.3     1  UNL1        0.0899
     24 C         143.2891  142.9226  160.5671 C.3     1  UNL1        0.0246
     25 C         142.2975  143.6916  159.7452 C.3     1  UNL1        0.0338
     26 C         142.5337  143.8903  158.2772 C.3     1  UNL1        0.1422
     27 O         143.7615  143.3200  157.6312 O.3     1  UNL1       -0.3538
     28 C         144.7531  142.5511  158.4531 C.3     1  UNL1        0.1422
     29 C         144.5169  142.3524  159.9210 C.3     1  UNL1        0.0338
@<TRIPOS>BOND
     1    19    20    2
     2    20    21   am
     3    21    23    1
     4    23    24    1
     5    24    25    1
     6    25    26    1
     7    26    27    1
     8    27    28    1
     9    28    29    1
    10    20     1    1
    11     1     2    2
    12     2     3    1
    13     3     4    2
    14     4     5    1
    15     5     6    1
    16     6     7    2
    17     7    10    1
    18    10    11   ar
    19    11    12   ar
    20    12    13   ar
    21    13    14   ar
    22    14    16    1
    23    16    17    1
    24    14    15   ar
    25     7     8    1
    26     8     9    2
    27    29    24    1
    28     9     1    1
    29     9     4    1
    30    15    10   ar
    31    21    22    1
    32    17    18    1
