@<TRIPOS>MOLECULE
*****
 36 39 0 0 0
SMALL
GASTEIGER

@<TRIPOS>ATOM
      1 N         144.1705  140.7028  162.9053 N.3     1  UNL1       -0.2684
      2 C         143.6110  140.5213  161.5255 C.3     1  UNL1        0.1035
      3 C         142.9379  141.6686  160.8323 C.3     1  UNL1        0.1470
      4 C         142.2647  142.8160  160.1391 C.3     1  UNL1        0.1035
      5 N         142.1510  144.1447  160.8258 N.3     1  UNL1       -0.2673
      6 C         142.7105  144.3261  162.2057 C.3     1  UNL1        0.1035
      7 C         143.3836  143.1788  162.8989 C.3     1  UNL1        0.1470
      8 C         144.0568  142.0315  163.5920 C.3     1  UNL1        0.1035
      9 O         142.8242  142.9974  161.5190 O.3     1  UNL1       -0.3530
     10 C         144.8437  139.5554  163.5986 C.3     1  UNL1        0.0761
     11 C         144.4414  139.1823  164.9946 C.3     1  UNL1        0.0646
     12 C         143.0015  138.9062  165.3117 C.3     1  UNL1        0.2068
     13 O         142.5553  138.7989  166.7398 O.3     1  UNL1       -0.4754
     14 C         140.9912  142.4309  168.8873 C.ar    1  UNL1        0.0686
     15 C         140.2778  141.1177  169.0170 C.ar    1  UNL1        0.0134
     16 C         140.7992  139.9071  168.3012 C.ar    1  UNL1        0.0376
     17 C         142.0339  140.0095  167.4556 C.ar    1  UNL1        0.1386
     18 C         142.7473  141.3226  167.3259 C.ar    1  UNL1        0.0376
     19 C         142.2259  142.5333  168.0418 C.ar    1  UNL1        0.0134
     20 N         139.9484  144.8522  170.3190 N.1     1  UNL1       -0.1908
     21 C         140.4698  143.6415  169.6032 C.1     1  UNL1        0.1004
     22 C         141.4778  145.2920  160.1326 C.3     1  UNL1        0.0913
     23 C         139.9989  145.4946  160.2810 C.3     1  UNL1        0.1087
     24 N         139.3945  145.6353  161.6466 N.3     1  UNL1       -0.1780
     25 H         138.4975  146.1051  161.5246 H       1  UNL1        0.1488
     26 S         139.1349  144.4162  162.4811 S.O2    1  UNL1        0.0603
     27 O         138.6793  143.6763  161.2584 O.2     1  UNL1       -0.1530
     28 O         139.5904  145.1561  163.7037 O.2     1  UNL1       -0.1530
     29 C         138.8752  143.1970  163.3156 C.ar    1  UNL1        0.1220
     30 C         139.6720  142.9591  164.5640 C.ar    1  UNL1        0.0206
     31 C         139.4124  141.7400  165.3985 C.ar    1  UNL1        0.0116
     32 C         138.3560  140.7589  164.9846 C.ar    1  UNL1        0.0685
     33 C         137.5592  140.9969  163.7362 C.ar    1  UNL1        0.0116
     34 C         137.8188  142.2159  162.9017 C.ar    1  UNL1        0.0206
     35 C         138.0963  139.5398  165.8192 C.1     1  UNL1        0.1004
     36 N         137.8366  138.3207  166.6536 N.1     1  UNL1       -0.1908
@<TRIPOS>BOND
     1    20    21    3
     2    21    14    1
     3    14    15   ar
     4    15    16   ar
     5    16    17   ar
     6    17    13    1
     7    13    12    1
     8    12    11    1
     9    11    10    1
    10    10     1    1
    11     1     2    1
    12     2     3    1
    13     3     4    1
    14     4     5    1
    15     5    22    1
    16    22    23    1
    17    23    24    1
    18    24    26    1
    19    26    27    2
    20    26    28    2
    21    26    29    1
    22    29    30   ar
    23    30    31   ar
    24    31    32   ar
    25    32    35    1
    26    35    36    3
    27    32    33   ar
    28    33    34   ar
    29     5     6    1
    30     6     7    1
    31     7     8    1
    32     7     9    1
    33    17    18   ar
    34    18    19   ar
    35    19    14   ar
    36     8     1    1
    37     9     3    1
    38    34    29   ar
    39    24    25    1
@<TRIPOS>MOLECULE
*****
 36 39 0 0 0
SMALL
GASTEIGER

@<TRIPOS>ATOM
      1 N         141.7382  139.3174  161.8818 N.3     1  UNL1       -0.2684
      2 C         142.7745  140.3105  162.3173 C.3     1  UNL1        0.1035
      3 C         142.6185  141.7602  161.9656 C.3     1  UNL1        0.1470
      4 C         142.4625  143.2101  161.6139 C.3     1  UNL1        0.1035
      5 N         141.2701  143.6668  160.8267 N.3     1  UNL1       -0.2673
      6 C         140.2337  142.6736  160.3913 C.3     1  UNL1        0.1035
      7 C         140.3897  141.2238  160.7430 C.3     1  UNL1        0.1470
      8 C         140.5458  139.7740  161.0947 C.3     1  UNL1        0.1035
      9 O         141.4261  142.2169  161.1784 O.3     1  UNL1       -0.3530
     10 C         141.8942  137.8675  162.2335 C.3     1  UNL1        0.0761
     11 C         141.3367  137.3446  163.5241 C.3     1  UNL1        0.0646
     12 C         141.3976  138.1874  164.7636 C.3     1  UNL1        0.2068
     13 O         142.7244  138.6314  165.3041 O.3     1  UNL1       -0.4754
     14 C         142.9005  141.6663  168.6220 C.ar    1  UNL1        0.0686
     15 C         142.6859  140.2167  168.9422 C.ar    1  UNL1        0.0134
     16 C         142.6272  139.2051  167.8362 C.ar    1  UNL1        0.0376
     17 C         142.7831  139.6431  166.4100 C.ar    1  UNL1        0.1386
     18 C         142.9977  141.0927  166.0899 C.ar    1  UNL1        0.0376
     19 C         143.0564  142.1043  167.1959 C.ar    1  UNL1        0.0134
     20 N         143.0179  143.6896  170.8340 N.1     1  UNL1       -0.1908
     21 C         142.9592  142.6779  169.7279 C.1     1  UNL1        0.1004
     22 C         141.1140  145.1166  160.4750 C.3     1  UNL1        0.0913
     23 C         140.0114  145.9239  161.0935 C.3     1  UNL1        0.1087
     24 N         139.8013  145.8931  162.5784 N.3     1  UNL1       -0.1780
     25 H         139.0484  146.5501  162.7830 H       1  UNL1        0.1488
     26 S         139.4482  144.6040  163.2592 S.O2    1  UNL1        0.0603
     27 O         140.6913  144.7037  164.0927 O.2     1  UNL1       -0.1530
     28 O         138.2051  144.5044  162.4257 O.2     1  UNL1       -0.1530
     29 C         139.0950  143.3149  163.9401 C.ar    1  UNL1        0.1220
     30 C         139.8054  142.9121  165.1983 C.ar    1  UNL1        0.0206
     31 C         139.4522  141.6230  165.8791 C.ar    1  UNL1        0.0116
     32 C         138.3886  140.7368  165.3018 C.ar    1  UNL1        0.0685
     33 C         137.6782  141.1397  164.0436 C.ar    1  UNL1        0.0116
     34 C         138.0314  142.4287  163.3627 C.ar    1  UNL1        0.0206
     35 C         138.0354  139.4477  165.9826 C.1     1  UNL1        0.1004
     36 N         137.6822  138.1587  166.6635 N.1     1  UNL1       -0.1908
@<TRIPOS>BOND
     1    20    21    3
     2    21    14    1
     3    14    15   ar
     4    15    16   ar
     5    16    17   ar
     6    17    13    1
     7    13    12    1
     8    12    11    1
     9    11    10    1
    10    10     1    1
    11     1     2    1
    12     2     3    1
    13     3     4    1
    14     4     5    1
    15     5    22    1
    16    22    23    1
    17    23    24    1
    18    24    26    1
    19    26    27    2
    20    26    28    2
    21    26    29    1
    22    29    30   ar
    23    30    31   ar
    24    31    32   ar
    25    32    35    1
    26    35    36    3
    27    32    33   ar
    28    33    34   ar
    29     5     6    1
    30     6     7    1
    31     7     8    1
    32     7     9    1
    33    17    18   ar
    34    18    19   ar
    35    19    14   ar
    36     8     1    1
    37     9     3    1
    38    34    29   ar
    39    24    25    1
@<TRIPOS>MOLECULE
*****
 36 39 0 0 0
SMALL
GASTEIGER

@<TRIPOS>ATOM
      1 N         139.1539  137.6481  164.5660 N.3     1  UNL1       -0.2684
      2 C         138.4624  138.1397  163.3290 C.3     1  UNL1        0.1035
      3 C         139.2385  138.3230  162.0586 C.3     1  UNL1        0.1470
      4 C         140.0146  138.5062  160.7880 C.3     1  UNL1        0.1035
      5 N         141.4821  138.1979  160.7545 N.3     1  UNL1       -0.2673
      6 C         142.1736  137.7062  161.9915 C.3     1  UNL1        0.1035
      7 C         141.3976  137.5229  163.2620 C.3     1  UNL1        0.1470
      8 C         140.6215  137.3397  164.5324 C.3     1  UNL1        0.1035
      9 O         140.7061  138.0146  162.0251 O.3     1  UNL1       -0.3530
     10 C         138.3779  137.4648  165.8365 C.3     1  UNL1        0.0761
     11 C         137.9124  138.6624  166.6104 C.3     1  UNL1        0.0646
     12 C         138.8991  139.4841  167.3860 C.3     1  UNL1        0.2068
     13 O         140.0818  140.0899  166.6902 O.3     1  UNL1       -0.4754
     14 C         139.5090  143.5724  163.8985 C.ar    1  UNL1        0.0686
     15 C         139.6503  142.1846  163.3472 C.ar    1  UNL1        0.0134
     16 C         139.8412  141.0238  164.2777 C.ar    1  UNL1        0.0376
     17 C         139.8909  141.2507  165.7597 C.ar    1  UNL1        0.1386
     18 C         139.7496  142.6385  166.3110 C.ar    1  UNL1        0.0376
     19 C         139.5587  143.7994  165.3804 C.ar    1  UNL1        0.0134
     20 N         139.1273  145.8942  162.0374 N.1     1  UNL1       -0.1908
     21 C         139.3181  144.7333  162.9680 C.1     1  UNL1        0.1004
     22 C         142.2582  138.3811  159.4841 C.3     1  UNL1        0.0913
     23 C         143.5046  139.2157  159.4803 C.3     1  UNL1        0.1087
     24 N         143.4484  140.6497  159.9168 N.3     1  UNL1       -0.1780
     25 H         142.6024  141.0484  159.5098 H       1  UNL1        0.1488
     26 S         143.4272  140.9885  161.3779 S.O2    1  UNL1        0.0603
     27 O         142.2182  141.8494  161.1607 O.2     1  UNL1       -0.1530
     28 O         144.6362  140.1277  161.5951 O.2     1  UNL1       -0.1530
     29 C         143.4060  141.3274  162.8390 C.ar    1  UNL1        0.1220
     30 C         143.5757  140.2441  163.8626 C.ar    1  UNL1        0.0206
     31 C         143.5546  140.5829  165.3237 C.ar    1  UNL1        0.0116
     32 C         143.3638  142.0050  165.7611 C.ar    1  UNL1        0.0685
     33 C         143.1941  143.0882  164.7375 C.ar    1  UNL1        0.0116
     34 C         143.2152  142.7494  163.2764 C.ar    1  UNL1        0.0206
     35 C         143.3426  142.3438  167.2222 C.1     1  UNL1        0.1004
     36 N         143.3215  142.6827  168.6833 N.1     1  UNL1       -0.1908
@<TRIPOS>BOND
     1    20    21    3
     2    21    14    1
     3    14    15   ar
     4    15    16   ar
     5    16    17   ar
     6    17    13    1
     7    13    12    1
     8    12    11    1
     9    11    10    1
    10    10     1    1
    11     1     2    1
    12     2     3    1
    13     3     4    1
    14     4     5    1
    15     5    22    1
    16    22    23    1
    17    23    24    1
    18    24    26    1
    19    26    27    2
    20    26    28    2
    21    26    29    1
    22    29    30   ar
    23    30    31   ar
    24    31    32   ar
    25    32    35    1
    26    35    36    3
    27    32    33   ar
    28    33    34   ar
    29     5     6    1
    30     6     7    1
    31     7     8    1
    32     7     9    1
    33    17    18   ar
    34    18    19   ar
    35    19    14   ar
    36     8     1    1
    37     9     3    1
    38    34    29   ar
    39    24    25    1
@<TRIPOS>MOLECULE
*****
 36 39 0 0 0
SMALL
GASTEIGER

@<TRIPOS>ATOM
      1 N         139.6875  143.8415  161.5539 N.3     1  UNL1       -0.2684
      2 C         138.7407  142.7128  161.2719 C.3     1  UNL1        0.1035
      3 C         139.1728  141.5718  160.3995 C.3     1  UNL1        0.1470
      4 C         139.6049  140.4306  159.5270 C.3     1  UNL1        0.1035
      5 N         140.9837  140.4182  158.9366 N.3     1  UNL1       -0.2673
      6 C         141.9305  141.5470  159.2187 C.3     1  UNL1        0.1035
      7 C         141.4984  142.6881  160.0911 C.3     1  UNL1        0.1470
      8 C         141.0663  143.8292  160.9636 C.3     1  UNL1        0.1035
      9 O         140.5516  141.5594  159.8091 O.3     1  UNL1       -0.3530
     10 C         139.2554  144.9827  162.4264 C.3     1  UNL1        0.0761
     11 C         139.2792  144.8363  163.9191 C.3     1  UNL1        0.0646
     12 C         140.5293  144.3745  164.6076 C.3     1  UNL1        0.2068
     13 O         140.9727  142.9473  164.4791 O.3     1  UNL1       -0.4754
     14 C         138.5460  139.6590  166.3627 C.ar    1  UNL1        0.0686
     15 C         139.5255  140.4368  167.1907 C.ar    1  UNL1        0.0134
     16 C         140.3344  141.5329  166.5629 C.ar    1  UNL1        0.0376
     17 C         140.1638  141.8512  165.1069 C.ar    1  UNL1        0.1386
     18 C         139.1843  141.0734  164.2789 C.ar    1  UNL1        0.0376
     19 C         138.3754  139.9773  164.9069 C.ar    1  UNL1        0.0134
     20 N         136.9282  137.4668  167.6185 N.1     1  UNL1       -0.1908
     21 C         137.7372  138.5629  166.9906 C.1     1  UNL1        0.1004
     22 C         141.4158  139.2772  158.0641 C.3     1  UNL1        0.0913
     23 C         142.0921  138.0835  158.6707 C.3     1  UNL1        0.1087
     24 N         143.3458  138.2601  159.4751 N.3     1  UNL1       -0.1780
     25 H         143.8081  139.0970  159.1200 H       1  UNL1        0.1488
     26 S         143.2658  138.4090  160.9655 S.O2    1  UNL1        0.0603
     27 O         142.2252  137.3299  161.0175 O.2     1  UNL1       -0.1530
     28 O         144.3063  139.4881  160.9136 O.2     1  UNL1       -0.1530
     29 C         143.1858  138.5580  162.4560 C.ar    1  UNL1        0.1220
     30 C         141.9867  138.0460  163.1977 C.ar    1  UNL1        0.0206
     31 C         141.9067  138.1950  164.6881 C.ar    1  UNL1        0.0116
     32 C         143.0258  138.8559  165.4368 C.ar    1  UNL1        0.0685
     33 C         144.2249  139.3679  164.6952 C.ar    1  UNL1        0.0116
     34 C         144.3049  139.2189  163.2048 C.ar    1  UNL1        0.0206
     35 C         142.9458  139.0049  166.9273 C.1     1  UNL1        0.1004
     36 N         142.8659  139.1539  168.4177 N.1     1  UNL1       -0.1908
@<TRIPOS>BOND
     1    20    21    3
     2    21    14    1
     3    14    15   ar
     4    15    16   ar
     5    16    17   ar
     6    17    13    1
     7    13    12    1
     8    12    11    1
     9    11    10    1
    10    10     1    1
    11     1     2    1
    12     2     3    1
    13     3     4    1
    14     4     5    1
    15     5    22    1
    16    22    23    1
    17    23    24    1
    18    24    26    1
    19    26    27    2
    20    26    28    2
    21    26    29    1
    22    29    30   ar
    23    30    31   ar
    24    31    32   ar
    25    32    35    1
    26    35    36    3
    27    32    33   ar
    28    33    34   ar
    29     5     6    1
    30     6     7    1
    31     7     8    1
    32     7     9    1
    33    17    18   ar
    34    18    19   ar
    35    19    14   ar
    36     8     1    1
    37     9     3    1
    38    34    29   ar
    39    24    25    1
@<TRIPOS>MOLECULE
*****
 36 39 0 0 0
SMALL
GASTEIGER

@<TRIPOS>ATOM
      1 N         144.6452  141.3069  163.2215 N.3     1  UNL1       -0.2684
      2 C         144.3562  141.0041  161.7811 C.3     1  UNL1        0.1035
      3 C         143.5951  141.9902  160.9455 C.3     1  UNL1        0.1470
      4 C         142.8340  142.9764  160.1099 C.3     1  UNL1        0.1035
      5 N         142.3619  144.2653  160.7147 N.3     1  UNL1       -0.2673
      6 C         142.6509  144.5681  162.1551 C.3     1  UNL1        0.1035
      7 C         143.4120  143.5820  162.9907 C.3     1  UNL1        0.1470
      8 C         144.1731  142.5958  163.8263 C.3     1  UNL1        0.1035
      9 O         143.1230  143.2792  161.5503 O.3     1  UNL1       -0.3530
     10 C         145.4063  140.3208  164.0571 C.3     1  UNL1        0.0761
     11 C         144.6824  139.1952  164.7346 C.3     1  UNL1        0.0646
     12 C         143.1978  139.2716  164.9357 C.3     1  UNL1        0.2068
     13 O         142.3110  138.1900  164.3939 O.3     1  UNL1       -0.4754
     14 C         139.0901  139.2012  161.4185 C.ar    1  UNL1        0.0686
     15 C         140.3009  140.0782  161.5401 C.ar    1  UNL1        0.0134
     16 C         141.3745  139.7412  162.5319 C.ar    1  UNL1        0.0376
     17 C         141.2374  138.5271  163.4021 C.ar    1  UNL1        0.1386
     18 C         140.0266  137.6501  163.2805 C.ar    1  UNL1        0.0376
     19 C         138.9529  137.9872  162.2886 C.ar    1  UNL1        0.0134
     20 N         136.9429  139.8753  159.4348 N.1     1  UNL1       -0.1908
     21 C         138.0165  139.5383  160.4267 C.1     1  UNL1        0.1004
     22 C         141.6008  145.2514  159.8791 C.3     1  UNL1        0.0913
     23 C         140.1031  145.2965  159.9501 C.3     1  UNL1        0.1087
     24 N         139.4208  145.5073  161.2692 N.3     1  UNL1       -0.1780
     25 H         138.5142  145.9292  161.0677 H       1  UNL1        0.1488
     26 S         139.1635  144.3401  162.1754 S.O2    1  UNL1        0.0603
     27 O         139.5439  145.1766  163.3609 O.2     1  UNL1       -0.1530
     28 O         138.7830  143.5036  160.9899 O.2     1  UNL1       -0.1530
     29 C         138.9061  143.1727  163.0816 C.ar    1  UNL1        0.1220
     30 C         139.8786  142.8435  164.1752 C.ar    1  UNL1        0.0206
     31 C         139.6213  141.6763  165.0814 C.ar    1  UNL1        0.0116
     32 C         138.3915  140.8382  164.8940 C.ar    1  UNL1        0.0685
     33 C         137.4190  141.1674  163.8005 C.ar    1  UNL1        0.0116
     34 C         137.6763  142.3347  162.8943 C.ar    1  UNL1        0.0206
     35 C         138.1341  139.6709  165.8002 C.1     1  UNL1        0.1004
     36 N         137.8767  138.5036  166.7064 N.1     1  UNL1       -0.1908
@<TRIPOS>BOND
     1    20    21    3
     2    21    14    1
     3    14    15   ar
     4    15    16   ar
     5    16    17   ar
     6    17    13    1
     7    13    12    1
     8    12    11    1
     9    11    10    1
    10    10     1    1
    11     1     2    1
    12     2     3    1
    13     3     4    1
    14     4     5    1
    15     5    22    1
    16    22    23    1
    17    23    24    1
    18    24    26    1
    19    26    27    2
    20    26    28    2
    21    26    29    1
    22    29    30   ar
    23    30    31   ar
    24    31    32   ar
    25    32    35    1
    26    35    36    3
    27    32    33   ar
    28    33    34   ar
    29     5     6    1
    30     6     7    1
    31     7     8    1
    32     7     9    1
    33    17    18   ar
    34    18    19   ar
    35    19    14   ar
    36     8     1    1
    37     9     3    1
    38    34    29   ar
    39    24    25    1
@<TRIPOS>MOLECULE
*****
 36 39 0 0 0
SMALL
GASTEIGER

@<TRIPOS>ATOM
      1 N         142.8939  143.8613  163.0436 N.3     1  UNL1       -0.2684
      2 C         143.4205  143.1597  161.8269 C.3     1  UNL1        0.1035
      3 C         142.4676  142.5684  160.8308 C.3     1  UNL1        0.1470
      4 C         141.5146  141.9771  159.8347 C.3     1  UNL1        0.1035
      5 N         140.0350  142.0873  160.0554 N.3     1  UNL1       -0.2673
      6 C         139.5084  142.7888  161.2722 C.3     1  UNL1        0.1035
      7 C         140.4614  143.3801  162.2683 C.3     1  UNL1        0.1470
      8 C         141.4144  143.9715  163.2643 C.3     1  UNL1        0.1035
      9 O         140.9880  142.6786  161.0515 O.3     1  UNL1       -0.3530
     10 C         143.8469  144.4526  164.0397 C.3     1  UNL1        0.0761
     11 C         144.4706  143.5815  165.0896 C.3     1  UNL1        0.0646
     12 C         143.6530  142.5230  165.7687 C.3     1  UNL1        0.2068
     13 O         142.3608  142.8874  166.4375 O.3     1  UNL1       -0.4754
     14 C         139.1437  139.7843  166.9580 C.ar    1  UNL1        0.0686
     15 C         139.1543  140.6561  165.7375 C.ar    1  UNL1        0.0134
     16 C         140.2266  141.6905  165.5639 C.ar    1  UNL1        0.0376
     17 C         141.2884  141.8530  166.6110 C.ar    1  UNL1        0.1386
     18 C         141.2778  140.9812  167.8316 C.ar    1  UNL1        0.0376
     19 C         140.2053  139.9468  168.0051 C.ar    1  UNL1        0.0134
     20 N         136.9989  137.7155  167.3051 N.1     1  UNL1       -0.1908
     21 C         138.0713  138.7499  167.1316 C.1     1  UNL1        0.1004
     22 C         139.0820  141.4960  159.0593 C.3     1  UNL1        0.0913
     23 C         138.1082  140.4390  159.4890 C.3     1  UNL1        0.1087
     24 N         138.6021  139.0759  159.8737 N.3     1  UNL1       -0.1780
     25 H         139.1366  138.7217  159.0805 H       1  UNL1        0.1488
     26 S         139.4659  138.9064  161.0882 S.O2    1  UNL1        0.0603
     27 O         138.3665  139.4575  161.9471 O.2     1  UNL1       -0.1530
     28 O         140.5653  138.3553  160.2294 O.2     1  UNL1       -0.1530
     29 C         140.3298  138.7369  162.3028 C.ar    1  UNL1        0.1220
     30 C         140.0047  137.6760  163.3122 C.ar    1  UNL1        0.0206
     31 C         140.8685  137.5064  164.5267 C.ar    1  UNL1        0.0116
     32 C         142.0573  138.3977  164.7318 C.ar    1  UNL1        0.0685
     33 C         142.3824  139.4586  163.7224 C.ar    1  UNL1        0.0116
     34 C         141.5186  139.6282  162.5079 C.ar    1  UNL1        0.0206
     35 C         142.9212  138.2282  165.9464 C.1     1  UNL1        0.1004
     36 N         143.7850  138.0586  167.1609 N.1     1  UNL1       -0.1908
@<TRIPOS>BOND
     1    20    21    3
     2    21    14    1
     3    14    15   ar
     4    15    16   ar
     5    16    17   ar
     6    17    13    1
     7    13    12    1
     8    12    11    1
     9    11    10    1
    10    10     1    1
    11     1     2    1
    12     2     3    1
    13     3     4    1
    14     4     5    1
    15     5    22    1
    16    22    23    1
    17    23    24    1
    18    24    26    1
    19    26    27    2
    20    26    28    2
    21    26    29    1
    22    29    30   ar
    23    30    31   ar
    24    31    32   ar
    25    32    35    1
    26    35    36    3
    27    32    33   ar
    28    33    34   ar
    29     5     6    1
    30     6     7    1
    31     7     8    1
    32     7     9    1
    33    17    18   ar
    34    18    19   ar
    35    19    14   ar
    36     8     1    1
    37     9     3    1
    38    34    29   ar
    39    24    25    1
@<TRIPOS>MOLECULE
*****
 36 39 0 0 0
SMALL
GASTEIGER

@<TRIPOS>ATOM
      1 N         138.7908  139.2598  164.6972 N.3     1  UNL1       -0.2684
      2 C         138.4074  140.2213  163.6116 C.3     1  UNL1        0.1035
      3 C         138.9710  140.0574  162.2313 C.3     1  UNL1        0.1470
      4 C         139.5347  139.8936  160.8508 C.3     1  UNL1        0.1035
      5 N         140.4817  138.7684  160.5561 N.3     1  UNL1       -0.2673
      6 C         140.8651  137.8069  161.6418 C.3     1  UNL1        0.1035
      7 C         140.3015  137.9707  163.0221 C.3     1  UNL1        0.1470
      8 C         139.7379  138.1345  164.4025 C.3     1  UNL1        0.1035
      9 O         139.9181  138.9322  161.9365 O.3     1  UNL1       -0.3530
     10 C         138.2272  139.4236  166.0777 C.3     1  UNL1        0.0761
     11 C         139.1477  139.6258  167.2445 C.3     1  UNL1        0.0646
     12 C         140.3837  140.4615  167.0888 C.3     1  UNL1        0.2068
     13 O         140.3044  141.9522  167.2346 O.3     1  UNL1       -0.4754
     14 C         139.8363  144.5477  163.5885 C.ar    1  UNL1        0.0686
     15 C         138.9952  144.8031  164.8039 C.ar    1  UNL1        0.0134
     16 C         139.1511  143.9380  166.0192 C.ar    1  UNL1        0.0376
     17 C         140.1484  142.8174  166.0192 C.ar    1  UNL1        0.1386
     18 C         140.9895  142.5620  164.8038 C.ar    1  UNL1        0.0376
     19 C         140.8335  143.4272  163.5884 C.ar    1  UNL1        0.0134
     20 N         139.5244  146.2781  161.1577 N.1     1  UNL1       -0.1908
     21 C         139.6803  145.4129  162.3731 C.1     1  UNL1        0.1004
     22 C         141.0454  138.6046  159.1757 C.3     1  UNL1        0.0913
     23 C         142.4417  138.0882  158.9921 C.3     1  UNL1        0.1087
     24 N         143.5994  139.0420  158.9861 N.3     1  UNL1       -0.1780
     25 H         143.4584  139.6711  158.1957 H       1  UNL1        0.1488
     26 S         143.8667  139.9045  160.1838 S.O2    1  UNL1        0.0603
     27 O         144.1749  138.6815  160.9957 O.2     1  UNL1       -0.1530
     28 O         143.5584  141.1275  159.3718 O.2     1  UNL1       -0.1530
     29 C         144.1340  140.7671  161.3815 C.ar    1  UNL1        0.1220
     30 C         144.1609  142.2601  161.2395 C.ar    1  UNL1        0.0206
     31 C         144.4282  143.1228  162.4371 C.ar    1  UNL1        0.0116
     32 C         144.6687  142.4924  163.7768 C.ar    1  UNL1        0.0685
     33 C         144.6418  140.9993  163.9188 C.ar    1  UNL1        0.0116
     34 C         144.3745  140.1367  162.7212 C.ar    1  UNL1        0.0206
     35 C         144.9360  143.3550  164.9745 C.1     1  UNL1        0.1004
     36 N         145.2034  144.2175  166.1722 N.1     1  UNL1       -0.1908
@<TRIPOS>BOND
     1    20    21    3
     2    21    14    1
     3    14    15   ar
     4    15    16   ar
     5    16    17   ar
     6    17    13    1
     7    13    12    1
     8    12    11    1
     9    11    10    1
    10    10     1    1
    11     1     2    1
    12     2     3    1
    13     3     4    1
    14     4     5    1
    15     5    22    1
    16    22    23    1
    17    23    24    1
    18    24    26    1
    19    26    27    2
    20    26    28    2
    21    26    29    1
    22    29    30   ar
    23    30    31   ar
    24    31    32   ar
    25    32    35    1
    26    35    36    3
    27    32    33   ar
    28    33    34   ar
    29     5     6    1
    30     6     7    1
    31     7     8    1
    32     7     9    1
    33    17    18   ar
    34    18    19   ar
    35    19    14   ar
    36     8     1    1
    37     9     3    1
    38    34    29   ar
    39    24    25    1
@<TRIPOS>MOLECULE
*****
 36 39 0 0 0
SMALL
GASTEIGER

@<TRIPOS>ATOM
      1 N         140.9303  144.1916  160.5088 N.3     1  UNL1       -0.2684
      2 C         140.1863  142.9768  160.0391 C.3     1  UNL1        0.1035
      3 C         140.8472  141.6308  160.0785 C.3     1  UNL1        0.1470
      4 C         141.5081  140.2848  160.1179 C.3     1  UNL1        0.1035
      5 N         142.9130  140.1537  160.6269 N.3     1  UNL1       -0.2673
      6 C         143.6570  141.3686  161.0965 C.3     1  UNL1        0.1035
      7 C         142.9961  142.7145  161.0572 C.3     1  UNL1        0.1470
      8 C         142.3352  144.0605  161.0178 C.3     1  UNL1        0.1035
      9 O         142.2521  141.4997  160.5875 O.3     1  UNL1       -0.3530
     10 C         140.2694  145.5376  160.4694 C.3     1  UNL1        0.0761
     11 C         139.7213  146.1412  161.7284 C.3     1  UNL1        0.0646
     12 C         139.0065  145.2773  162.7249 C.3     1  UNL1        0.2068
     13 O         139.7610  144.6745  163.8726 O.3     1  UNL1       -0.4754
     14 C         138.6086  140.6167  165.4397 C.ar    1  UNL1        0.0686
     15 C         139.5617  141.4772  166.2151 C.ar    1  UNL1        0.0134
     16 C         139.9458  142.8297  165.6927 C.ar    1  UNL1        0.0376
     17 C         139.3769  143.3219  164.3949 C.ar    1  UNL1        0.1386
     18 C         138.4238  142.4615  163.6196 C.ar    1  UNL1        0.0376
     19 C         138.0396  141.1088  164.1420 C.ar    1  UNL1        0.0134
     20 N         137.8403  137.9114  166.4844 N.1     1  UNL1       -0.1908
     21 C         138.2244  139.2641  165.9620 C.1     1  UNL1        0.1004
     22 C         143.5739  138.8077  160.6663 C.3     1  UNL1        0.0913
     23 C         143.8767  138.1591  161.9846 C.3     1  UNL1        0.1087
     24 N         142.8040  138.0408  163.0262 N.3     1  UNL1       -0.1780
     25 H         142.8167  137.0749  163.3536 H       1  UNL1        0.1488
     26 S         142.8441  138.9122  164.2464 S.O2    1  UNL1        0.0603
     27 O         144.3150  139.1260  164.0454 O.2     1  UNL1       -0.1530
     28 O         141.3731  138.6984  164.4475 O.2     1  UNL1       -0.1530
     29 C         142.8841  139.7836  165.4667 C.ar    1  UNL1        0.1220
     30 C         143.3048  141.2187  165.3500 C.ar    1  UNL1        0.0206
     31 C         143.3449  142.0901  166.5702 C.ar    1  UNL1        0.0116
     32 C         142.9643  141.5265  167.9071 C.ar    1  UNL1        0.0685
     33 C         142.5437  140.0914  168.0239 C.ar    1  UNL1        0.0116
     34 C         142.5036  139.2200  166.8037 C.ar    1  UNL1        0.0206
     35 C         143.0044  142.3980  169.1274 C.1     1  UNL1        0.1004
     36 N         143.0444  143.2694  170.3477 N.1     1  UNL1       -0.1908
@<TRIPOS>BOND
     1    20    21    3
     2    21    14    1
     3    14    15   ar
     4    15    16   ar
     5    16    17   ar
     6    17    13    1
     7    13    12    1
     8    12    11    1
     9    11    10    1
    10    10     1    1
    11     1     2    1
    12     2     3    1
    13     3     4    1
    14     4     5    1
    15     5    22    1
    16    22    23    1
    17    23    24    1
    18    24    26    1
    19    26    27    2
    20    26    28    2
    21    26    29    1
    22    29    30   ar
    23    30    31   ar
    24    31    32   ar
    25    32    35    1
    26    35    36    3
    27    32    33   ar
    28    33    34   ar
    29     5     6    1
    30     6     7    1
    31     7     8    1
    32     7     9    1
    33    17    18   ar
    34    18    19   ar
    35    19    14   ar
    36     8     1    1
    37     9     3    1
    38    34    29   ar
    39    24    25    1
@<TRIPOS>MOLECULE
*****
 36 39 0 0 0
SMALL
GASTEIGER

@<TRIPOS>ATOM
      1 N         144.7305  140.5766  162.8049 N.3     1  UNL1       -0.2684
      2 C         144.3404  139.1315  162.9021 C.3     1  UNL1        0.1035
      3 C         143.6899  138.4501  161.7349 C.3     1  UNL1        0.1470
      4 C         143.0393  137.7687  160.5676 C.3     1  UNL1        0.1035
      5 N         142.7789  138.5324  159.3031 N.3     1  UNL1       -0.2673
      6 C         143.1690  139.9776  159.2059 C.3     1  UNL1        0.1035
      7 C         143.8195  140.6589  160.3732 C.3     1  UNL1        0.1470
      8 C         144.4701  141.3403  161.5404 C.3     1  UNL1        0.1035
      9 O         143.4295  139.2138  160.4704 O.3     1  UNL1       -0.3530
     10 C         145.3810  141.2580  163.9722 C.3     1  UNL1        0.0761
     11 C         144.8583  142.5778  164.4568 C.3     1  UNL1        0.0646
     12 C         143.4411  142.6935  164.9344 C.3     1  UNL1        0.2068
     13 O         142.3228  142.1308  164.1081 O.3     1  UNL1       -0.4754
     14 C         139.1659  139.5709  166.0394 C.ar    1  UNL1        0.0686
     15 C         139.5454  140.8853  166.6545 C.ar    1  UNL1        0.0134
     16 C         140.5977  141.7386  166.0107 C.ar    1  UNL1        0.0376
     17 C         141.2705  141.2775  164.7518 C.ar    1  UNL1        0.1386
     18 C         140.8910  139.9631  164.1368 C.ar    1  UNL1        0.0376
     19 C         139.8387  139.1098  164.7806 C.ar    1  UNL1        0.0134
     20 N         137.0612  137.8642  167.3270 N.1     1  UNL1       -0.1908
     21 C         138.1136  138.7176  166.6832 C.1     1  UNL1        0.1004
     22 C         142.1284  137.8510  158.1358 C.3     1  UNL1        0.0913
     23 C         140.8067  138.3408  157.6227 C.3     1  UNL1        0.1087
     24 N         139.5745  138.1960  158.4658 N.3     1  UNL1       -0.1780
     25 H         139.6419  137.2917  158.9328 H       1  UNL1        0.1488
     26 S         139.2691  139.2102  159.5279 S.O2    1  UNL1        0.0603
     27 O         139.4428  138.1579  160.5826 O.2     1  UNL1       -0.1530
     28 O         139.0954  140.2625  158.4732 O.2     1  UNL1       -0.1530
     29 C         138.9637  140.2245  160.5900 C.ar    1  UNL1        0.1220
     30 C         139.7842  141.4762  160.6899 C.ar    1  UNL1        0.0206
     31 C         139.4789  142.4904  161.7519 C.ar    1  UNL1        0.0116
     32 C         138.3530  142.2530  162.7141 C.ar    1  UNL1        0.0685
     33 C         137.5324  141.0013  162.6143 C.ar    1  UNL1        0.0116
     34 C         137.8378  139.9870  161.5522 C.ar    1  UNL1        0.0206
     35 C         138.0475  143.2673  163.7763 C.1     1  UNL1        0.1004
     36 N         137.7422  144.2815  164.8384 N.1     1  UNL1       -0.1908
@<TRIPOS>BOND
     1    20    21    3
     2    21    14    1
     3    14    15   ar
     4    15    16   ar
     5    16    17   ar
     6    17    13    1
     7    13    12    1
     8    12    11    1
     9    11    10    1
    10    10     1    1
    11     1     2    1
    12     2     3    1
    13     3     4    1
    14     4     5    1
    15     5    22    1
    16    22    23    1
    17    23    24    1
    18    24    26    1
    19    26    27    2
    20    26    28    2
    21    26    29    1
    22    29    30   ar
    23    30    31   ar
    24    31    32   ar
    25    32    35    1
    26    35    36    3
    27    32    33   ar
    28    33    34   ar
    29     5     6    1
    30     6     7    1
    31     7     8    1
    32     7     9    1
    33    17    18   ar
    34    18    19   ar
    35    19    14   ar
    36     8     1    1
    37     9     3    1
    38    34    29   ar
    39    24    25    1
