@<TRIPOS>MOLECULE
*****
 32 36 0 0 0
SMALL
GASTEIGER

@<TRIPOS>ATOM
      1 O         143.1334  140.3142  157.0134 O.2     1  UNL1       -0.2664
      2 C         142.9768  139.0629  157.8257 C.2     1  UNL1        0.2884
      3 N         143.3061  139.0727  159.2891 N.am    1  UNL1       -0.2732
      4 C         143.1496  137.8214  160.1015 C.3     1  UNL1        0.0975
      5 C         143.4788  137.8312  161.5648 C.3     1  UNL1        0.0651
      6 C         143.9647  139.0921  162.2158 C.3     1  UNL1        0.1693
      7 C         144.1213  140.3434  161.4035 C.3     1  UNL1        0.0651
      8 C         143.7920  140.3337  159.9401 C.3     1  UNL1        0.0975
      9 C         142.4909  137.8020  157.1747 C.ar    1  UNL1        0.2575
     10 N         141.0759  137.5043  156.7758 N.ar    1  UNL1       -0.0508
     11 O         141.0452  136.1356  156.1628 O.2     1  UNL1       -0.3323
     12 C         142.4412  135.5874  156.1829 C.ar    1  UNL1        0.2601
     13 N         143.3347  136.6172  156.8083 N.ar    1  UNL1       -0.1831
     14 C         142.8688  134.2449  155.6680 C.ar    1  UNL1        0.0561
     15 C         142.2805  133.7069  154.3974 C.ar    1  UNL1        0.0047
     16 C         142.7081  132.3645  153.8825 C.ar    1  UNL1        0.0002
     17 C         143.7238  131.5601  154.6383 C.ar    1  UNL1        0.0000
     18 C         144.3121  132.0981  155.9089 C.ar    1  UNL1        0.0002
     19 C         143.8845  133.4405  156.4237 C.ar    1  UNL1        0.0047
     20 O         144.2940  139.1019  163.6792 O.3     1  UNL1       -0.4791
     21 C         143.2133  139.3491  164.6895 C.ar    1  UNL1        0.1384
     22 C         143.4638  139.0638  166.1407 C.ar    1  UNL1        0.0366
     23 C         142.3830  139.3110  167.1510 C.ar    1  UNL1        0.0002
     24 C         141.0518  139.8435  166.7102 C.ar    1  UNL1       -0.0059
     25 C         140.8013  140.1288  165.2591 C.ar    1  UNL1        0.0002
     26 C         141.8820  139.8816  164.2487 C.ar    1  UNL1        0.0366
     27 C         139.9711  140.0907  167.7207 C.3     1  UNL1        0.0991
     28 N         140.0396  141.2945  168.6130 N.3     1  UNL1       -0.2690
     29 C         140.5129  142.6611  168.2151 C.3     1  UNL1        0.0724
     30 C         140.4126  143.5542  169.4160 C.3     1  UNL1        0.0188
     31 C         139.8773  142.7396  170.5561 C.3     1  UNL1        0.0188
     32 C         139.6468  141.3429  170.0598 C.3     1  UNL1        0.0724
@<TRIPOS>BOND
     1     1     2    2
     2     2     9    1
     3     9    10   ar
     4    10    11   ar
     5    11    12   ar
     6    12    14    1
     7    14    15   ar
     8    15    16   ar
     9    16    17   ar
    10    17    18   ar
    11    18    19   ar
    12    12    13   ar
    13     2     3   am
    14     3     4    1
    15     4     5    1
    16     5     6    1
    17     6    20    1
    18    20    21    1
    19    21    22   ar
    20    22    23   ar
    21    23    24   ar
    22    24    27    1
    23    27    28    1
    24    28    29    1
    25    29    30    1
    26    30    31    1
    27    31    32    1
    28    24    25   ar
    29    25    26   ar
    30     6     7    1
    31     7     8    1
    32    13     9   ar
    33     8     3    1
    34    19    14   ar
    35    26    21   ar
    36    32    28    1
@<TRIPOS>MOLECULE
*****
 32 36 0 0 0
SMALL
GASTEIGER

@<TRIPOS>ATOM
      1 O         143.2042  140.3661  158.5499 O.2     1  UNL1       -0.2664
      2 C         142.1516  139.3383  158.8425 C.2     1  UNL1        0.2884
      3 N         141.1678  139.5669  159.9515 N.am    1  UNL1       -0.2732
      4 C         140.1152  138.5390  160.2440 C.3     1  UNL1        0.0975
      5 C         139.1315  138.7676  161.3530 C.3     1  UNL1        0.0651
      6 C         139.2003  140.0240  162.1695 C.3     1  UNL1        0.1693
      7 C         140.2528  141.0519  161.8770 C.3     1  UNL1        0.0651
      8 C         141.2366  140.8233  160.7680 C.3     1  UNL1        0.0975
      9 C         142.0828  138.0819  158.0260 C.ar    1  UNL1        0.2575
     10 N         141.0590  137.7680  156.9754 N.ar    1  UNL1       -0.0508
     11 O         141.3691  136.4109  156.4169 O.2     1  UNL1       -0.3323
     12 C         142.5845  135.8860  157.1221 C.ar    1  UNL1        0.2601
     13 N         143.0255  136.9187  158.1166 N.ar    1  UNL1       -0.1831
     14 C         143.2432  134.5610  156.8762 C.ar    1  UNL1        0.0561
     15 C         144.0426  133.9074  157.9641 C.ar    1  UNL1        0.0047
     16 C         144.7013  132.5824  157.7181 C.ar    1  UNL1        0.0002
     17 C         144.5605  131.9110  156.3841 C.ar    1  UNL1        0.0000
     18 C         143.7611  132.5646  155.2962 C.ar    1  UNL1        0.0002
     19 C         143.1024  133.8896  155.5422 C.ar    1  UNL1        0.0047
     20 O         138.2165  140.2526  163.2785 O.3     1  UNL1       -0.4791
     21 C         138.6840  140.2718  164.7037 C.ar    1  UNL1        0.1384
     22 C         139.5898  141.3679  165.1812 C.ar    1  UNL1        0.0366
     23 C         140.0573  141.3870  166.6063 C.ar    1  UNL1        0.0002
     24 C         139.6190  140.3101  167.5540 C.ar    1  UNL1       -0.0059
     25 C         138.7131  139.2140  167.0765 C.ar    1  UNL1        0.0002
     26 C         138.2457  139.1948  165.6514 C.ar    1  UNL1        0.0366
     27 C         140.0865  140.3294  168.9792 C.3     1  UNL1        0.0991
     28 N         141.2513  141.1877  169.3749 N.3     1  UNL1       -0.2690
     29 C         141.1713  142.5414  170.0159 C.3     1  UNL1        0.0724
     30 C         142.5710  143.0334  170.2363 C.3     1  UNL1        0.0188
     31 C         143.5161  141.9836  169.7315 C.3     1  UNL1        0.0188
     32 C         142.7004  140.8429  169.1991 C.3     1  UNL1        0.0724
@<TRIPOS>BOND
     1     1     2    2
     2     2     9    1
     3     9    10   ar
     4    10    11   ar
     5    11    12   ar
     6    12    14    1
     7    14    15   ar
     8    15    16   ar
     9    16    17   ar
    10    17    18   ar
    11    18    19   ar
    12    12    13   ar
    13     2     3   am
    14     3     4    1
    15     4     5    1
    16     5     6    1
    17     6    20    1
    18    20    21    1
    19    21    22   ar
    20    22    23   ar
    21    23    24   ar
    22    24    27    1
    23    27    28    1
    24    28    29    1
    25    29    30    1
    26    30    31    1
    27    31    32    1
    28    24    25   ar
    29    25    26   ar
    30     6     7    1
    31     7     8    1
    32    13     9   ar
    33     8     3    1
    34    19    14   ar
    35    26    21   ar
    36    32    28    1
@<TRIPOS>MOLECULE
*****
 32 36 0 0 0
SMALL
GASTEIGER

@<TRIPOS>ATOM
      1 O         137.3413  139.3906  160.9522 O.2     1  UNL1       -0.2664
      2 C         138.6915  138.9985  161.4748 C.2     1  UNL1        0.2884
      3 N         139.8040  138.6856  160.5185 N.am    1  UNL1       -0.2732
      4 C         141.1543  138.2935  161.0411 C.3     1  UNL1        0.0975
      5 C         142.2667  137.9806  160.0849 C.3     1  UNL1        0.0651
      6 C         142.0290  138.0598  158.6060 C.3     1  UNL1        0.1693
      7 C         140.6788  138.4518  158.0833 C.3     1  UNL1        0.0651
      8 C         139.5663  138.7648  159.0396 C.3     1  UNL1        0.0975
      9 C         138.9293  138.9194  162.9537 C.ar    1  UNL1        0.2575
     10 N         138.9284  137.6682  163.7812 N.ar    1  UNL1       -0.0508
     11 O         139.2083  138.0531  165.2037 O.2     1  UNL1       -0.3323
     12 C         139.3821  139.5421  165.2554 C.ar    1  UNL1        0.2601
     13 N         139.2097  140.0775  163.8648 N.ar    1  UNL1       -0.1831
     14 C         139.6766  140.3533  166.4823 C.ar    1  UNL1        0.0561
     15 C         140.3298  141.6975  166.3537 C.ar    1  UNL1        0.0047
     16 C         140.6243  142.5086  167.5806 C.ar    1  UNL1        0.0002
     17 C         140.2656  141.9757  168.9360 C.ar    1  UNL1        0.0000
     18 C         139.6124  140.6315  169.0646 C.ar    1  UNL1        0.0002
     19 C         139.3179  139.8204  167.8378 C.ar    1  UNL1        0.0047
     20 O         143.1415  137.7469  157.6497 O.3     1  UNL1       -0.4791
     21 C         143.1037  136.4828  156.8430 C.ar    1  UNL1        0.1384
     22 C         142.8571  136.5437  155.3647 C.ar    1  UNL1        0.0366
     23 C         142.8194  135.2797  154.5579 C.ar    1  UNL1        0.0002
     24 C         143.0283  133.9548  155.2295 C.ar    1  UNL1       -0.0059
     25 C         143.2749  133.8939  156.7078 C.ar    1  UNL1        0.0002
     26 C         143.3126  135.1579  157.5146 C.ar    1  UNL1        0.0366
     27 C         142.9905  132.6908  154.4227 C.3     1  UNL1        0.0991
     28 N         143.2514  131.3703  155.0846 N.3     1  UNL1       -0.2690
     29 C         144.5997  130.7907  155.3946 C.3     1  UNL1        0.0724
     30 C         144.3914  129.4597  156.0543 C.3     1  UNL1        0.0188
     31 C         142.9144  129.2169  156.1520 C.3     1  UNL1        0.0188
     32 C         142.2099  130.3977  155.5527 C.3     1  UNL1        0.0724
@<TRIPOS>BOND
     1     1     2    2
     2     2     9    1
     3     9    10   ar
     4    10    11   ar
     5    11    12   ar
     6    12    14    1
     7    14    15   ar
     8    15    16   ar
     9    16    17   ar
    10    17    18   ar
    11    18    19   ar
    12    12    13   ar
    13     2     3   am
    14     3     4    1
    15     4     5    1
    16     5     6    1
    17     6    20    1
    18    20    21    1
    19    21    22   ar
    20    22    23   ar
    21    23    24   ar
    22    24    27    1
    23    27    28    1
    24    28    29    1
    25    29    30    1
    26    30    31    1
    27    31    32    1
    28    24    25   ar
    29    25    26   ar
    30     6     7    1
    31     7     8    1
    32    13     9   ar
    33     8     3    1
    34    19    14   ar
    35    26    21   ar
    36    32    28    1
@<TRIPOS>MOLECULE
*****
 32 36 0 0 0
SMALL
GASTEIGER

@<TRIPOS>ATOM
      1 O         140.2477  138.6626  158.0918 O.2     1  UNL1       -0.2664
      2 C         141.6855  138.4095  158.4363 C.2     1  UNL1        0.2884
      3 N         142.2943  139.0633  159.6413 N.am    1  UNL1       -0.2732
      4 C         143.7321  138.8101  159.9858 C.3     1  UNL1        0.0975
      5 C         144.3409  139.4638  161.1907 C.3     1  UNL1        0.0651
      6 C         143.5120  140.3707  162.0512 C.3     1  UNL1        0.1693
      7 C         142.0742  140.6239  161.7067 C.3     1  UNL1        0.0651
      8 C         141.4653  139.9702  160.5017 C.3     1  UNL1        0.0975
      9 C         142.5144  137.5026  157.5759 C.ar    1  UNL1        0.2575
     10 N         143.5611  137.9345  156.5920 N.ar    1  UNL1       -0.0508
     11 O         144.1358  136.7034  155.9563 O.2     1  UNL1       -0.3323
     12 C         143.4444  135.5107  156.5473 C.ar    1  UNL1        0.2601
     13 N         142.4423  136.0046  157.5483 N.ar    1  UNL1       -0.1831
     14 C         143.7086  134.0758  156.1986 C.ar    1  UNL1        0.0561
     15 C         143.1307  133.4902  154.9444 C.ar    1  UNL1        0.0047
     16 C         143.3949  132.0554  154.5957 C.ar    1  UNL1        0.0002
     17 C         144.2370  131.2063  155.5013 C.ar    1  UNL1        0.0000
     18 C         144.8149  131.7920  156.7555 C.ar    1  UNL1        0.0002
     19 C         144.5506  133.2268  157.1041 C.ar    1  UNL1        0.0047
     20 O         144.1208  141.0245  163.2561 O.3     1  UNL1       -0.4791
     21 C         143.6614  140.6391  164.6310 C.ar    1  UNL1        0.1384
     22 C         143.7103  139.2035  165.0631 C.ar    1  UNL1        0.0366
     23 C         143.2509  138.8181  166.4380 C.ar    1  UNL1        0.0002
     24 C         142.7426  139.8682  167.3809 C.ar    1  UNL1       -0.0059
     25 C         142.6937  141.3038  166.9488 C.ar    1  UNL1        0.0002
     26 C         143.1531  141.6892  165.5739 C.ar    1  UNL1        0.0366
     27 C         142.2832  139.4826  168.7558 C.3     1  UNL1        0.0991
     28 N         141.3548  140.3825  169.5163 N.3     1  UNL1       -0.2690
     29 C         139.8636  140.4410  169.3655 C.3     1  UNL1        0.0724
     30 C         139.3419  141.4765  170.3171 C.3     1  UNL1        0.0188
     31 C         140.5106  142.0579  171.0560 C.3     1  UNL1        0.0188
     32 C         141.7548  141.3817  170.5610 C.3     1  UNL1        0.0724
@<TRIPOS>BOND
     1     1     2    2
     2     2     9    1
     3     9    10   ar
     4    10    11   ar
     5    11    12   ar
     6    12    14    1
     7    14    15   ar
     8    15    16   ar
     9    16    17   ar
    10    17    18   ar
    11    18    19   ar
    12    12    13   ar
    13     2     3   am
    14     3     4    1
    15     4     5    1
    16     5     6    1
    17     6    20    1
    18    20    21    1
    19    21    22   ar
    20    22    23   ar
    21    23    24   ar
    22    24    27    1
    23    27    28    1
    24    28    29    1
    25    29    30    1
    26    30    31    1
    27    31    32    1
    28    24    25   ar
    29    25    26   ar
    30     6     7    1
    31     7     8    1
    32    13     9   ar
    33     8     3    1
    34    19    14   ar
    35    26    21   ar
    36    32    28    1
@<TRIPOS>MOLECULE
*****
 32 36 0 0 0
SMALL
GASTEIGER

@<TRIPOS>ATOM
      1 O         140.0587  145.8593  156.7334 O.2     1  UNL1       -0.2664
      2 C         139.7771  144.7001  157.6428 C.2     1  UNL1        0.2884
      3 N         138.9045  143.5737  157.1740 N.am    1  UNL1       -0.2732
      4 C         138.6229  142.4145  158.0835 C.3     1  UNL1        0.0975
      5 C         137.7503  141.2882  157.6146 C.3     1  UNL1        0.0651
      6 C         137.1593  141.3209  156.2363 C.3     1  UNL1        0.1693
      7 C         137.4409  142.4801  155.3268 C.3     1  UNL1        0.0651
      8 C         138.3135  143.6065  155.7957 C.3     1  UNL1        0.0975
      9 C         140.3680  144.6673  159.0211 C.ar    1  UNL1        0.2575
     10 N         141.8124  144.8790  159.3664 N.ar    1  UNL1       -0.0508
     11 O         141.9555  144.7596  160.8548 O.2     1  UNL1       -0.3323
     12 C         140.5996  144.4742  161.4294 C.ar    1  UNL1        0.2601
     13 N         139.6185  144.4172  160.2961 N.ar    1  UNL1       -0.1831
     14 C         140.2807  144.2799  162.8822 C.ar    1  UNL1        0.0561
     15 C         141.2218  143.5094  163.7601 C.ar    1  UNL1        0.0047
     16 C         140.9029  143.3152  165.2129 C.ar    1  UNL1        0.0002
     17 C         139.6429  143.8915  165.7877 C.ar    1  UNL1        0.0000
     18 C         138.7019  144.6619  164.9098 C.ar    1  UNL1        0.0002
     19 C         139.0208  144.8562  163.4571 C.ar    1  UNL1        0.0047
     20 O         136.2867  140.1945  155.7675 O.3     1  UNL1       -0.4791
     21 C         134.8045  140.2510  155.9908 C.ar    1  UNL1        0.1384
     22 C         134.1825  139.4564  157.1005 C.ar    1  UNL1        0.0366
     23 C         132.7003  139.5129  157.3238 C.ar    1  UNL1        0.0002
     24 C         131.8401  140.3640  156.4374 C.ar    1  UNL1       -0.0059
     25 C         132.4622  141.1587  155.3276 C.ar    1  UNL1        0.0002
     26 C         133.9444  141.1022  155.1043 C.ar    1  UNL1        0.0366
     27 C         130.3579  140.4204  156.6608 C.3     1  UNL1        0.0991
     28 N         129.6412  139.2372  157.2406 N.3     1  UNL1       -0.2690
     29 C         129.2416  137.9972  156.4971 C.3     1  UNL1        0.0724
     30 C         128.5517  137.0799  157.4627 C.3     1  UNL1        0.0188
     31 C         128.5248  137.7529  158.8030 C.3     1  UNL1        0.0188
     32 C         129.1982  139.0863  158.6657 C.3     1  UNL1        0.0724
@<TRIPOS>BOND
     1     1     2    2
     2     2     9    1
     3     9    10   ar
     4    10    11   ar
     5    11    12   ar
     6    12    14    1
     7    14    15   ar
     8    15    16   ar
     9    16    17   ar
    10    17    18   ar
    11    18    19   ar
    12    12    13   ar
    13     2     3   am
    14     3     4    1
    15     4     5    1
    16     5     6    1
    17     6    20    1
    18    20    21    1
    19    21    22   ar
    20    22    23   ar
    21    23    24   ar
    22    24    27    1
    23    27    28    1
    24    28    29    1
    25    29    30    1
    26    30    31    1
    27    31    32    1
    28    24    25   ar
    29    25    26   ar
    30     6     7    1
    31     7     8    1
    32    13     9   ar
    33     8     3    1
    34    19    14   ar
    35    26    21   ar
    36    32    28    1
@<TRIPOS>MOLECULE
*****
 32 36 0 0 0
SMALL
GASTEIGER

@<TRIPOS>ATOM
      1 O         137.2950  140.3493  158.1909 O.2     1  UNL1       -0.2664
      2 C         138.3956  139.9513  159.1290 C.2     1  UNL1        0.2884
      3 N         139.6211  139.2668  158.6002 N.am    1  UNL1       -0.2732
      4 C         140.7218  138.8689  159.5384 C.3     1  UNL1        0.0975
      5 C         141.9472  138.1844  159.0096 C.3     1  UNL1        0.0651
      6 C         142.0720  137.8978  157.5425 C.3     1  UNL1        0.1693
      7 C         140.9714  138.2957  156.6042 C.3     1  UNL1        0.0651
      8 C         139.7459  138.9802  157.1331 C.3     1  UNL1        0.0975
      9 C         138.2708  140.2379  160.5961 C.ar    1  UNL1        0.2575
     10 N         137.6841  139.3198  161.6271 N.ar    1  UNL1       -0.0508
     11 O         137.7615  140.0074  162.9579 O.2     1  UNL1       -0.3323
     12 C         138.3961  141.3505  162.7495 C.ar    1  UNL1        0.2601
     13 N         138.7108  141.4930  161.2898 N.ar    1  UNL1       -0.1831
     14 C         138.6681  142.3719  163.8139 C.ar    1  UNL1        0.0561
     15 C         137.8085  143.5969  163.9151 C.ar    1  UNL1        0.0047
     16 C         138.0805  144.6182  164.9794 C.ar    1  UNL1        0.0002
     17 C         139.2122  144.4144  165.9426 C.ar    1  UNL1        0.0000
     18 C         140.0719  143.1894  165.8415 C.ar    1  UNL1        0.0002
     19 C         139.7998  142.1681  164.7771 C.ar    1  UNL1        0.0047
     20 O         143.2975  137.2133  157.0136 O.3     1  UNL1       -0.4791
     21 C         143.1848  135.8595  156.3777 C.ar    1  UNL1        0.1384
     22 C         143.3678  134.6235  157.2076 C.ar    1  UNL1        0.0366
     23 C         143.2551  133.2697  156.5716 C.ar    1  UNL1        0.0002
     24 C         142.9596  133.1519  155.1057 C.ar    1  UNL1       -0.0059
     25 C         142.7766  134.3879  154.2758 C.ar    1  UNL1        0.0002
     26 C         142.8893  135.7417  154.9118 C.ar    1  UNL1        0.0366
     27 C         142.8470  131.7980  154.4699 C.3     1  UNL1        0.0991
     28 N         143.3428  130.5838  155.1978 N.3     1  UNL1       -0.2690
     29 C         142.5016  129.6227  155.9844 C.3     1  UNL1        0.0724
     30 C         143.4058  128.5625  156.5397 C.3     1  UNL1        0.0188
     31 C         144.8057  128.8684  156.0964 C.3     1  UNL1        0.0188
     32 C         144.7668  130.1176  155.2670 C.3     1  UNL1        0.0724
@<TRIPOS>BOND
     1     1     2    2
     2     2     9    1
     3     9    10   ar
     4    10    11   ar
     5    11    12   ar
     6    12    14    1
     7    14    15   ar
     8    15    16   ar
     9    16    17   ar
    10    17    18   ar
    11    18    19   ar
    12    12    13   ar
    13     2     3   am
    14     3     4    1
    15     4     5    1
    16     5     6    1
    17     6    20    1
    18    20    21    1
    19    21    22   ar
    20    22    23   ar
    21    23    24   ar
    22    24    27    1
    23    27    28    1
    24    28    29    1
    25    29    30    1
    26    30    31    1
    27    31    32    1
    28    24    25   ar
    29    25    26   ar
    30     6     7    1
    31     7     8    1
    32    13     9   ar
    33     8     3    1
    34    19    14   ar
    35    26    21   ar
    36    32    28    1
@<TRIPOS>MOLECULE
*****
 32 36 0 0 0
SMALL
GASTEIGER

@<TRIPOS>ATOM
      1 O         140.9321  136.8747  164.0439 O.2     1  UNL1       -0.2664
      2 C         139.9375  137.9955  164.1135 C.2     1  UNL1        0.2884
      3 N         139.3382  138.5457  162.8533 N.am    1  UNL1       -0.2732
      4 C         138.3436  139.6665  162.9230 C.3     1  UNL1        0.0975
      5 C         137.7443  140.2167  161.6629 C.3     1  UNL1        0.0651
      6 C         138.1395  139.6462  160.3331 C.3     1  UNL1        0.1693
      7 C         139.1340  138.5255  160.2634 C.3     1  UNL1        0.0651
      8 C         139.7334  137.9752  161.5235 C.3     1  UNL1        0.0975
      9 C         139.5424  138.5660  165.4433 C.ar    1  UNL1        0.2575
     10 N         138.2627  138.2905  166.1758 N.ar    1  UNL1       -0.0508
     11 O         138.2869  139.0664  167.4593 O.2     1  UNL1       -0.3323
     12 C         139.5816  139.8215  167.5200 C.ar    1  UNL1        0.2601
     13 N         140.3575  139.5122  166.2741 N.ar    1  UNL1       -0.1831
     14 C         140.0229  140.7269  168.6316 C.ar    1  UNL1        0.0561
     15 C         140.2119  142.1926  168.3748 C.ar    1  UNL1        0.0047
     16 C         140.6532  143.0979  169.4864 C.ar    1  UNL1        0.0002
     17 C         140.9055  142.5376  170.8547 C.ar    1  UNL1        0.0000
     18 C         140.7164  141.0719  171.1115 C.ar    1  UNL1        0.0002
     19 C         140.2751  140.1666  170.0000 C.ar    1  UNL1        0.0047
     20 O         137.5401  140.1965  159.0729 O.3     1  UNL1       -0.4791
     21 C         138.3162  141.1699  158.2361 C.ar    1  UNL1        0.1384
     22 C         139.4981  141.8853  158.8201 C.ar    1  UNL1        0.0366
     23 C         140.2741  142.8587  157.9833 C.ar    1  UNL1        0.0002
     24 C         139.8682  143.1167  156.5625 C.ar    1  UNL1       -0.0059
     25 C         138.6862  142.4013  155.9785 C.ar    1  UNL1        0.0002
     26 C         137.9102  141.4279  156.8153 C.ar    1  UNL1        0.0366
     27 C         140.6443  144.0901  155.7257 C.3     1  UNL1        0.0991
     28 N         140.1410  145.4915  155.5446 N.3     1  UNL1       -0.2690
     29 C         139.4766  146.3322  156.5942 C.3     1  UNL1        0.0724
     30 C         139.1388  147.6585  155.9804 C.3     1  UNL1        0.0188
     31 C         139.5945  147.6375  154.5515 C.3     1  UNL1        0.0188
     32 C         140.2139  146.2982  154.2821 C.3     1  UNL1        0.0724
@<TRIPOS>BOND
     1     1     2    2
     2     2     9    1
     3     9    10   ar
     4    10    11   ar
     5    11    12   ar
     6    12    14    1
     7    14    15   ar
     8    15    16   ar
     9    16    17   ar
    10    17    18   ar
    11    18    19   ar
    12    12    13   ar
    13     2     3   am
    14     3     4    1
    15     4     5    1
    16     5     6    1
    17     6    20    1
    18    20    21    1
    19    21    22   ar
    20    22    23   ar
    21    23    24   ar
    22    24    27    1
    23    27    28    1
    24    28    29    1
    25    29    30    1
    26    30    31    1
    27    31    32    1
    28    24    25   ar
    29    25    26   ar
    30     6     7    1
    31     7     8    1
    32    13     9   ar
    33     8     3    1
    34    19    14   ar
    35    26    21   ar
    36    32    28    1
@<TRIPOS>MOLECULE
*****
 32 36 0 0 0
SMALL
GASTEIGER

@<TRIPOS>ATOM
      1 O         139.5238  139.8186  155.9965 O.2     1  UNL1       -0.2664
      2 C         140.0900  138.9977  157.1170 C.2     1  UNL1        0.2884
      3 N         139.5188  139.1193  158.4987 N.am    1  UNL1       -0.2732
      4 C         140.0851  138.2983  159.6193 C.3     1  UNL1        0.0975
      5 C         139.5140  138.4199  161.0009 C.3     1  UNL1        0.0651
      6 C         138.3767  139.3623  161.2620 C.3     1  UNL1        0.1693
      7 C         137.8104  140.1833  160.1416 C.3     1  UNL1        0.0651
      8 C         138.3815  140.0617  158.7599 C.3     1  UNL1        0.0975
      9 C         141.2273  138.0552  156.8558 C.ar    1  UNL1        0.2575
     10 N         142.6832  138.3517  157.0619 N.ar    1  UNL1       -0.0508
     11 O         143.4641  137.1305  156.6762 O.2     1  UNL1       -0.3323
     12 C         142.4909  136.0793  156.2317 C.ar    1  UNL1        0.2601
     13 N         141.1085  136.6507  156.3427 N.ar    1  UNL1       -0.1831
     14 C         142.8389  134.6988  155.7591 C.ar    1  UNL1        0.0561
     15 C         142.1461  134.1191  154.5616 C.ar    1  UNL1        0.0047
     16 C         142.4942  132.7387  154.0891 C.ar    1  UNL1        0.0002
     17 C         143.5351  131.9380  154.8140 C.ar    1  UNL1        0.0000
     18 C         144.2279  132.5177  156.0114 C.ar    1  UNL1        0.0002
     19 C         143.8798  133.8981  156.4840 C.ar    1  UNL1        0.0047
     20 O         137.8056  139.4839  162.6437 O.3     1  UNL1       -0.4791
     21 C         138.5454  140.2557  163.6959 C.ar    1  UNL1        0.1384
     22 C         139.6258  139.5887  164.4946 C.ar    1  UNL1        0.0366
     23 C         140.3656  140.3605  165.5467 C.ar    1  UNL1        0.0002
     24 C         140.0251  141.7992  165.8002 C.ar    1  UNL1       -0.0059
     25 C         138.9447  142.4661  165.0015 C.ar    1  UNL1        0.0002
     26 C         138.2048  141.6944  163.9494 C.ar    1  UNL1        0.0366
     27 C         140.7650  142.5708  166.8524 C.3     1  UNL1        0.0991
     28 N         140.3918  142.4168  168.2970 N.3     1  UNL1       -0.2690
     29 C         140.4120  143.5012  169.3332 C.3     1  UNL1        0.0724
     30 C         139.9656  142.9060  170.6357 C.3     1  UNL1        0.0188
     31 C         139.6696  141.4538  170.4045 C.3     1  UNL1        0.0188
     32 C         139.9331  141.1515  168.9590 C.3     1  UNL1        0.0724
@<TRIPOS>BOND
     1     1     2    2
     2     2     9    1
     3     9    10   ar
     4    10    11   ar
     5    11    12   ar
     6    12    14    1
     7    14    15   ar
     8    15    16   ar
     9    16    17   ar
    10    17    18   ar
    11    18    19   ar
    12    12    13   ar
    13     2     3   am
    14     3     4    1
    15     4     5    1
    16     5     6    1
    17     6    20    1
    18    20    21    1
    19    21    22   ar
    20    22    23   ar
    21    23    24   ar
    22    24    27    1
    23    27    28    1
    24    28    29    1
    25    29    30    1
    26    30    31    1
    27    31    32    1
    28    24    25   ar
    29    25    26   ar
    30     6     7    1
    31     7     8    1
    32    13     9   ar
    33     8     3    1
    34    19    14   ar
    35    26    21   ar
    36    32    28    1
@<TRIPOS>MOLECULE
*****
 32 36 0 0 0
SMALL
GASTEIGER

@<TRIPOS>ATOM
      1 O         144.7126  137.9508  155.7504 O.2     1  UNL1       -0.2664
      2 C         143.4481  137.1603  155.9121 C.2     1  UNL1        0.2884
      3 N         142.2087  137.8262  156.4323 N.am    1  UNL1       -0.2732
      4 C         140.9442  137.0357  156.5941 C.3     1  UNL1        0.0975
      5 C         139.7049  137.7015  157.1143 C.3     1  UNL1        0.0651
      6 C         139.7300  139.1578  157.4728 C.3     1  UNL1        0.1693
      7 C         140.9945  139.9483  157.3111 C.3     1  UNL1        0.0651
      8 C         142.2339  139.2825  156.7909 C.3     1  UNL1        0.0975
      9 C         143.4229  135.7041  155.5536 C.ar    1  UNL1        0.2575
     10 N         142.8712  135.1169  154.2882 N.ar    1  UNL1       -0.0508
     11 O         143.0524  133.6292  154.3500 O.2     1  UNL1       -0.3323
     12 C         143.7160  133.2968  155.6535 C.ar    1  UNL1        0.2601
     13 N         143.9450  134.5791  156.3973 N.ar    1  UNL1       -0.1831
     14 C         144.0858  131.9232  156.1297 C.ar    1  UNL1        0.0561
     15 C         144.2877  130.8151  155.1391 C.ar    1  UNL1        0.0047
     16 C         144.6574  129.4417  155.6152 C.ar    1  UNL1        0.0002
     17 C         144.8252  129.1763  157.0820 C.ar    1  UNL1        0.0000
     18 C         144.6233  130.2843  158.0726 C.ar    1  UNL1        0.0002
     19 C         144.2536  131.6578  157.5964 C.ar    1  UNL1        0.0047
     20 O         138.4907  139.8236  157.9931 O.3     1  UNL1       -0.4791
     21 C         138.3542  140.1145  159.4583 C.ar    1  UNL1        0.1384
     22 C         138.3382  141.5339  159.9428 C.ar    1  UNL1        0.0366
     23 C         138.2017  141.8248  161.4080 C.ar    1  UNL1        0.0002
     24 C         138.0813  140.6961  162.3886 C.ar    1  UNL1       -0.0059
     25 C         138.0974  139.2767  161.9041 C.ar    1  UNL1        0.0002
     26 C         138.2338  138.9858  160.4389 C.ar    1  UNL1        0.0366
     27 C         137.9449  140.9871  163.8538 C.3     1  UNL1        0.0991
     28 N         138.5084  142.2557  164.4223 N.3     1  UNL1       -0.2690
     29 C         137.8084  143.5807  164.4859 C.3     1  UNL1        0.0724
     30 C         138.7383  144.5658  165.1299 C.3     1  UNL1        0.0188
     31 C         140.0131  143.8496  165.4643 C.3     1  UNL1        0.0188
     32 C         139.8710  142.4218  165.0270 C.3     1  UNL1        0.0724
@<TRIPOS>BOND
     1     1     2    2
     2     2     9    1
     3     9    10   ar
     4    10    11   ar
     5    11    12   ar
     6    12    14    1
     7    14    15   ar
     8    15    16   ar
     9    16    17   ar
    10    17    18   ar
    11    18    19   ar
    12    12    13   ar
    13     2     3   am
    14     3     4    1
    15     4     5    1
    16     5     6    1
    17     6    20    1
    18    20    21    1
    19    21    22   ar
    20    22    23   ar
    21    23    24   ar
    22    24    27    1
    23    27    28    1
    24    28    29    1
    25    29    30    1
    26    30    31    1
    27    31    32    1
    28    24    25   ar
    29    25    26   ar
    30     6     7    1
    31     7     8    1
    32    13     9   ar
    33     8     3    1
    34    19    14   ar
    35    26    21   ar
    36    32    28    1
