@<TRIPOS>MOLECULE
*****
 28 30 0 0 0
SMALL
GASTEIGER

@<TRIPOS>ATOM
      1 C         141.1929  138.4969  159.7910 C.3     1  UNL1        0.0278
      2 C         140.7475  139.3140  160.9675 C.3     1  UNL1        0.1119
      3 C         140.5014  140.7851  160.8088 C.ar    1  UNL1        0.0770
      4 C         141.6534  141.7453  160.8341 C.ar    1  UNL1        0.0195
      5 C         141.4073  143.2165  160.6755 C.ar    1  UNL1        0.0398
      6 C         140.0091  143.7274  160.4915 C.ar    1  UNL1        0.1580
      7 C         138.8570  142.7672  160.4661 C.ar    1  UNL1        0.1353
      8 N         139.1032  141.2960  160.6248 N.ar    1  UNL1       -0.2433
      9 O         139.7629  145.1985  160.3328 O.3     1  UNL1       -0.4650
     10 C         139.7852  146.0965  161.5340 C.3     1  UNL1        0.3082
     11 C         139.8030  145.5051  162.9124 C.3     1  UNL1        0.4380
     12 F         139.8207  144.9136  164.2907 F       1  UNL1       -0.1663
     13 F         138.3438  145.1794  162.7914 F       1  UNL1       -0.1663
     14 F         141.2622  145.8308  163.0334 F       1  UNL1       -0.1663
     15 N         140.5483  138.6599  162.3025 N.am    1  UNL1       -0.3005
     16 C         139.1890  138.1660  162.7004 C.2     1  UNL1        0.2271
     17 O         138.0288  138.3262  161.7632 O.2     1  UNL1       -0.2747
     18 H         141.3098  138.5548  162.9177 H       1  UNL1        0.1497
     19 C         138.9898  137.5120  164.0355 C.3     1  UNL1        0.1113
     20 C         139.1942  138.3006  165.2950 C.ar    1  UNL1       -0.0131
     21 C         138.0823  138.4186  166.2948 C.ar    1  UNL1       -0.0041
     22 C         138.2867  139.2072  167.5543 C.ar    1  UNL1       -0.0046
     23 C         139.6031  139.8778  167.8139 C.ar    1  UNL1       -0.0225
     24 C         140.7151  139.7598  166.8141 C.ar    1  UNL1       -0.0046
     25 C         140.5106  138.9712  165.5547 C.ar    1  UNL1       -0.0041
     26 C         139.8076  140.6665  169.0734 C.3     1  UNL1        0.0224
     27 C         139.7234  141.9636  169.8220 C.3     1  UNL1        0.0047
     28 C         140.2458  140.7353  170.5063 C.3     1  UNL1        0.0047
@<TRIPOS>BOND
     1     2     1    1
     2     2    15    1
     3    15    16   am
     4    16    17    2
     5    16    19    1
     6    19    20    1
     7    20    21   ar
     8    21    22   ar
     9    22    23   ar
    10    23    26    1
    11    26    27    1
    12    27    28    1
    13    23    24   ar
    14    24    25   ar
    15     2     3    1
    16     3     4   ar
    17     4     5   ar
    18     5     6   ar
    19     6     9    1
    20     9    10    1
    21    10    11    1
    22    11    12    1
    23    11    13    1
    24    11    14    1
    25     6     7   ar
    26     7     8   ar
    27    25    20   ar
    28     8     3   ar
    29    28    26    1
    30    15    18    1
@<TRIPOS>MOLECULE
*****
 28 30 0 0 0
SMALL
GASTEIGER

@<TRIPOS>ATOM
      1 C         139.1085  140.2820  158.0655 C.3     1  UNL1        0.0278
      2 C         139.9541  139.1757  158.6231 C.3     1  UNL1        0.1119
      3 C         139.7563  138.7213  160.0389 C.ar    1  UNL1        0.0770
      4 C         138.3914  138.7713  160.6589 C.ar    1  UNL1        0.0195
      5 C         138.1937  138.3169  162.0747 C.ar    1  UNL1        0.0398
      6 C         139.3609  137.8126  162.8705 C.ar    1  UNL1        0.1580
      7 C         140.7258  137.7626  162.2504 C.ar    1  UNL1        0.1353
      8 N         140.9235  138.2170  160.8347 N.ar    1  UNL1       -0.2433
      9 O         139.1631  137.3582  164.2862 O.3     1  UNL1       -0.4650
     10 C         139.1061  138.3655  165.3962 C.3     1  UNL1        0.3082
     11 C         138.0117  138.2929  166.4194 C.3     1  UNL1        0.4380
     12 F         136.9173  138.2204  167.4426 F       1  UNL1       -0.1663
     13 F         138.0545  139.7846  166.5710 F       1  UNL1       -0.1663
     14 F         137.9689  136.8012  166.2678 F       1  UNL1       -0.1663
     15 N         140.9974  138.5238  157.7650 N.am    1  UNL1       -0.3005
     16 C         140.5908  137.5458  156.7027 C.2     1  UNL1        0.2271
     17 O         139.1410  137.2197  156.4987 O.2     1  UNL1       -0.2747
     18 H         141.9489  138.7377  157.8989 H       1  UNL1        0.1497
     19 C         141.6341  136.8938  155.8446 C.3     1  UNL1        0.1113
     20 C         142.0416  135.4743  156.1074 C.ar    1  UNL1       -0.0131
     21 C         141.3809  134.3538  155.3605 C.ar    1  UNL1       -0.0041
     22 C         141.7884  132.9344  155.6233 C.ar    1  UNL1       -0.0046
     23 C         142.8566  132.6355  156.6331 C.ar    1  UNL1       -0.0225
     24 C         143.5173  133.7559  157.3800 C.ar    1  UNL1       -0.0046
     25 C         143.1098  135.1754  157.1172 C.ar    1  UNL1       -0.0041
     26 C         143.2641  131.2159  156.8959 C.3     1  UNL1        0.0224
     27 C         143.9488  130.2000  157.7614 C.3     1  UNL1        0.0047
     28 C         143.2852  129.7733  156.4857 C.3     1  UNL1        0.0047
@<TRIPOS>BOND
     1     2     1    1
     2     2    15    1
     3    15    16   am
     4    16    17    2
     5    16    19    1
     6    19    20    1
     7    20    21   ar
     8    21    22   ar
     9    22    23   ar
    10    23    26    1
    11    26    27    1
    12    27    28    1
    13    23    24   ar
    14    24    25   ar
    15     2     3    1
    16     3     4   ar
    17     4     5   ar
    18     5     6   ar
    19     6     9    1
    20     9    10    1
    21    10    11    1
    22    11    12    1
    23    11    13    1
    24    11    14    1
    25     6     7   ar
    26     7     8   ar
    27    25    20   ar
    28     8     3   ar
    29    28    26    1
    30    15    18    1
@<TRIPOS>MOLECULE
*****
 28 30 0 0 0
SMALL
GASTEIGER

@<TRIPOS>ATOM
      1 C         138.3490  145.1788  165.9910 C.3     1  UNL1        0.0278
      2 C         139.1566  144.3769  165.0139 C.3     1  UNL1        0.1119
      3 C         139.1990  142.8816  165.1248 C.ar    1  UNL1        0.0770
      4 C         140.2871  142.2189  165.9164 C.ar    1  UNL1        0.0195
      5 C         140.3296  140.7236  166.0273 C.ar    1  UNL1        0.0398
      6 C         139.2839  139.8911  165.3466 C.ar    1  UNL1        0.1580
      7 C         138.1958  140.5538  164.5550 C.ar    1  UNL1        0.1353
      8 N         138.1534  142.0491  164.4441 N.ar    1  UNL1       -0.2433
      9 O         139.3263  138.3958  165.4575 O.3     1  UNL1       -0.4650
     10 C         140.3411  137.6143  164.6768 C.3     1  UNL1        0.3082
     11 C         140.3267  137.6539  163.1774 C.3     1  UNL1        0.4380
     12 F         140.3123  137.6935  161.6780 F       1  UNL1       -0.1663
     13 F         141.7581  138.1025  163.1755 F       1  UNL1       -0.1663
     14 F         138.8954  137.2053  163.1793 F       1  UNL1       -0.1663
     15 N         139.9218  145.0703  163.9260 N.am    1  UNL1       -0.3005
     16 C         139.3028  145.2509  162.5716 C.2     1  UNL1        0.2271
     17 O         137.9187  144.7380  162.3052 O.2     1  UNL1       -0.2747
     18 H         140.8303  145.4070  164.1009 H       1  UNL1        0.1497
     19 C         140.0680  145.9443  161.4837 C.3     1  UNL1        0.1113
     20 C         140.9950  145.1608  160.6022 C.ar    1  UNL1       -0.0131
     21 C         141.0110  145.4081  159.1229 C.ar    1  UNL1       -0.0041
     22 C         141.9379  144.6246  158.2415 C.ar    1  UNL1       -0.0046
     23 C         142.8489  143.5938  158.8394 C.ar    1  UNL1       -0.0225
     24 C         142.8329  143.3464  160.3188 C.ar    1  UNL1       -0.0046
     25 C         141.9060  144.1299  161.2001 C.ar    1  UNL1       -0.0041
     26 C         143.7758  142.8103  157.9579 C.3     1  UNL1        0.0224
     27 C         144.0825  142.1757  156.6338 C.3     1  UNL1        0.0047
     28 C         145.0747  142.0878  157.7553 C.3     1  UNL1        0.0047
@<TRIPOS>BOND
     1     2     1    1
     2     2    15    1
     3    15    16   am
     4    16    17    2
     5    16    19    1
     6    19    20    1
     7    20    21   ar
     8    21    22   ar
     9    22    23   ar
    10    23    26    1
    11    26    27    1
    12    27    28    1
    13    23    24   ar
    14    24    25   ar
    15     2     3    1
    16     3     4   ar
    17     4     5   ar
    18     5     6   ar
    19     6     9    1
    20     9    10    1
    21    10    11    1
    22    11    12    1
    23    11    13    1
    24    11    14    1
    25     6     7   ar
    26     7     8   ar
    27    25    20   ar
    28     8     3   ar
    29    28    26    1
    30    15    18    1
@<TRIPOS>MOLECULE
*****
 28 30 0 0 0
SMALL
GASTEIGER

@<TRIPOS>ATOM
      1 C         141.7376  140.6891  160.2175 C.3     1  UNL1        0.0278
      2 C         140.9016  139.4494  160.0982 C.3     1  UNL1        0.1119
      3 C         141.0048  138.5902  158.8730 C.ar    1  UNL1        0.0770
      4 C         142.3273  138.0030  158.4780 C.ar    1  UNL1        0.0195
      5 C         142.4305  137.1438  157.2527 C.ar    1  UNL1        0.0398
      6 C         141.2112  136.8719  156.4225 C.ar    1  UNL1        0.1580
      7 C         139.8887  137.4591  156.8175 C.ar    1  UNL1        0.1353
      8 N         139.7855  138.3183  158.0428 N.ar    1  UNL1       -0.2433
      9 O         141.3144  136.0127  155.1973 O.3     1  UNL1       -0.4650
     10 C         141.4766  134.5278  155.3340 C.3     1  UNL1        0.3082
     11 C         142.8409  133.9379  155.5358 C.3     1  UNL1        0.4380
     12 F         144.2052  133.3479  155.7375 F       1  UNL1       -0.1663
     13 F         143.4183  134.9501  154.5913 F       1  UNL1       -0.1663
     14 F         142.2635  132.9256  156.4802 F       1  UNL1       -0.1663
     15 N         139.9624  139.0689  161.2041 N.am    1  UNL1       -0.3005
     16 C         140.3439  137.9905  162.1744 C.2     1  UNL1        0.2271
     17 O         141.6647  137.2926  162.0388 O.2     1  UNL1       -0.2747
     18 H         139.0955  139.5270  161.2931 H       1  UNL1        0.1497
     19 C         139.4047  137.6100  163.2803 C.3     1  UNL1        0.1113
     20 C         139.4837  138.3090  164.6052 C.ar    1  UNL1       -0.0131
     21 C         140.7682  138.9507  165.0392 C.ar    1  UNL1       -0.0041
     22 C         140.8472  139.6496  166.3640 C.ar    1  UNL1       -0.0046
     23 C         139.6417  139.7069  167.2548 C.ar    1  UNL1       -0.0225
     24 C         138.3572  139.0652  166.8208 C.ar    1  UNL1       -0.0046
     25 C         138.2783  138.3663  165.4960 C.ar    1  UNL1       -0.0041
     26 C         139.7207  140.4059  168.5797 C.3     1  UNL1        0.0224
     27 C         139.6428  140.3642  170.0771 C.3     1  UNL1        0.0047
     28 C         139.9355  141.6581  169.3771 C.3     1  UNL1        0.0047
@<TRIPOS>BOND
     1     2     1    1
     2     2    15    1
     3    15    16   am
     4    16    17    2
     5    16    19    1
     6    19    20    1
     7    20    21   ar
     8    21    22   ar
     9    22    23   ar
    10    23    26    1
    11    26    27    1
    12    27    28    1
    13    23    24   ar
    14    24    25   ar
    15     2     3    1
    16     3     4   ar
    17     4     5   ar
    18     5     6   ar
    19     6     9    1
    20     9    10    1
    21    10    11    1
    22    11    12    1
    23    11    13    1
    24    11    14    1
    25     6     7   ar
    26     7     8   ar
    27    25    20   ar
    28     8     3   ar
    29    28    26    1
    30    15    18    1
@<TRIPOS>MOLECULE
*****
 28 30 0 0 0
SMALL
GASTEIGER

@<TRIPOS>ATOM
      1 C         139.8837  138.4021  159.1229 C.3     1  UNL1        0.0278
      2 C         139.8649  139.1460  160.4253 C.3     1  UNL1        0.1119
      3 C         139.7985  140.6445  160.4322 C.ar    1  UNL1        0.0770
      4 C         138.5275  141.3371  160.8255 C.ar    1  UNL1        0.0195
      5 C         138.4610  142.8356  160.8325 C.ar    1  UNL1        0.0398
      6 C         139.6656  143.6416  160.4461 C.ar    1  UNL1        0.1580
      7 C         140.9367  142.9490  160.0528 C.ar    1  UNL1        0.1353
      8 N         141.0031  141.4505  160.0459 N.ar    1  UNL1       -0.2433
      9 O         139.5992  145.1401  160.4530 O.3     1  UNL1       -0.4650
     10 C         140.0198  145.9038  161.6735 C.3     1  UNL1        0.3082
     11 C         140.3551  145.1707  162.9385 C.3     1  UNL1        0.4380
     12 F         140.6904  144.4376  164.2034 F       1  UNL1       -0.1663
     13 F         138.8984  145.1134  163.2914 F       1  UNL1       -0.1663
     14 F         141.8119  145.2279  162.5856 F       1  UNL1       -0.1663
     15 N         139.9126  138.3914  161.7207 N.am    1  UNL1       -0.3005
     16 C         141.2167  138.2218  162.4424 C.2     1  UNL1        0.2271
     17 O         142.4730  138.8069  161.8686 O.2     1  UNL1       -0.2747
     18 H         139.0880  138.0074  162.0973 H       1  UNL1        0.1497
     19 C         141.2643  137.4672  163.7379 C.3     1  UNL1        0.1113
     20 C         141.6236  138.1796  165.0081 C.ar    1  UNL1       -0.0131
     21 C         142.9874  138.0031  165.6070 C.ar    1  UNL1       -0.0041
     22 C         143.3466  138.7155  166.8772 C.ar    1  UNL1       -0.0046
     23 C         142.3420  139.6044  167.5485 C.ar    1  UNL1       -0.0225
     24 C         140.9782  139.7809  166.9495 C.ar    1  UNL1       -0.0046
     25 C         140.6190  139.0685  165.6793 C.ar    1  UNL1       -0.0041
     26 C         142.7013  140.3168  168.8187 C.3     1  UNL1        0.0224
     27 C         142.8793  140.3067  170.3080 C.3     1  UNL1        0.0047
     28 C         143.1454  141.5609  169.5294 C.3     1  UNL1        0.0047
@<TRIPOS>BOND
     1     2     1    1
     2     2    15    1
     3    15    16   am
     4    16    17    2
     5    16    19    1
     6    19    20    1
     7    20    21   ar
     8    21    22   ar
     9    22    23   ar
    10    23    26    1
    11    26    27    1
    12    27    28    1
    13    23    24   ar
    14    24    25   ar
    15     2     3    1
    16     3     4   ar
    17     4     5   ar
    18     5     6   ar
    19     6     9    1
    20     9    10    1
    21    10    11    1
    22    11    12    1
    23    11    13    1
    24    11    14    1
    25     6     7   ar
    26     7     8   ar
    27    25    20   ar
    28     8     3   ar
    29    28    26    1
    30    15    18    1
@<TRIPOS>MOLECULE
*****
 28 30 0 0 0
SMALL
GASTEIGER

@<TRIPOS>ATOM
      1 C         139.2018  142.7172  156.6735 C.3     1  UNL1        0.0278
      2 C         138.0163  142.1525  157.3985 C.3     1  UNL1        0.1119
      3 C         138.1906  141.5351  158.7544 C.ar    1  UNL1        0.0770
      4 C         138.5995  142.3869  159.9194 C.ar    1  UNL1        0.0195
      5 C         138.7738  141.7695  161.2753 C.ar    1  UNL1        0.0398
      6 C         138.5392  140.3003  161.4662 C.ar    1  UNL1        0.1580
      7 C         138.1304  139.4485  160.3012 C.ar    1  UNL1        0.1353
      8 N         137.9561  140.0659  158.9453 N.ar    1  UNL1       -0.2433
      9 O         138.7135  139.6829  162.8221 O.3     1  UNL1       -0.4650
     10 C         138.7143  138.1905  162.9721 C.3     1  UNL1        0.3082
     11 C         139.9409  137.4877  163.4736 C.3     1  UNL1        0.4380
     12 F         141.1675  136.7849  163.9751 F       1  UNL1       -0.1663
     13 F         139.2744  137.2709  164.7998 F       1  UNL1       -0.1663
     14 F         140.6073  137.7045  162.1474 F       1  UNL1       -0.1663
     15 N         136.6565  142.2051  156.7675 N.am    1  UNL1       -0.3005
     16 C         136.1825  141.0683  155.9113 C.2     1  UNL1        0.2271
     17 O         137.0683  139.8789  155.6861 O.2     1  UNL1       -0.2747
     18 H         136.0752  142.9857  156.9154 H       1  UNL1        0.1497
     19 C         134.8227  141.1209  155.2804 C.3     1  UNL1        0.1113
     20 C         133.6387  140.5476  156.0012 C.ar    1  UNL1       -0.0131
     21 C         132.2522  140.9856  155.6328 C.ar    1  UNL1       -0.0041
     22 C         131.0683  140.4123  156.3536 C.ar    1  UNL1       -0.0046
     23 C         131.2709  139.4010  157.4428 C.ar    1  UNL1       -0.0225
     24 C         132.6574  138.9631  157.8112 C.ar    1  UNL1       -0.0046
     25 C         133.8413  139.5364  157.0904 C.ar    1  UNL1       -0.0041
     26 C         130.0869  138.8277  158.1637 C.3     1  UNL1        0.0224
     27 C         128.9509  138.9896  159.1297 C.3     1  UNL1        0.0047
     28 C         129.1721  137.6729  158.4461 C.3     1  UNL1        0.0047
@<TRIPOS>BOND
     1     2     1    1
     2     2    15    1
     3    15    16   am
     4    16    17    2
     5    16    19    1
     6    19    20    1
     7    20    21   ar
     8    21    22   ar
     9    22    23   ar
    10    23    26    1
    11    26    27    1
    12    27    28    1
    13    23    24   ar
    14    24    25   ar
    15     2     3    1
    16     3     4   ar
    17     4     5   ar
    18     5     6   ar
    19     6     9    1
    20     9    10    1
    21    10    11    1
    22    11    12    1
    23    11    13    1
    24    11    14    1
    25     6     7   ar
    26     7     8   ar
    27    25    20   ar
    28     8     3   ar
    29    28    26    1
    30    15    18    1
@<TRIPOS>MOLECULE
*****
 28 30 0 0 0
SMALL
GASTEIGER

@<TRIPOS>ATOM
      1 C         139.4761  140.9321  156.1366 C.3     1  UNL1        0.0278
      2 C         138.1901  140.7403  156.8844 C.3     1  UNL1        0.1119
      3 C         138.1396  140.9819  158.3640 C.ar    1  UNL1        0.0770
      4 C         138.5311  142.3192  158.9193 C.ar    1  UNL1        0.0195
      5 C         138.4806  142.5608  160.3989 C.ar    1  UNL1        0.0398
      6 C         138.0386  141.4652  161.3231 C.ar    1  UNL1        0.1580
      7 C         137.6471  140.1279  160.7678 C.ar    1  UNL1        0.1353
      8 N         137.6976  139.8863  159.2882 N.ar    1  UNL1       -0.2433
      9 O         137.9881  141.7068  162.8026 O.3     1  UNL1       -0.4650
     10 C         137.6591  143.0724  163.3287 C.3     1  UNL1        0.3082
     11 C         138.5005  143.6823  164.4105 C.3     1  UNL1        0.4380
     12 F         139.3419  144.2921  165.4922 F       1  UNL1       -0.1663
     13 F         139.7202  143.0310  163.8289 F       1  UNL1       -0.1663
     14 F         137.2808  144.3335  164.9920 F       1  UNL1       -0.1663
     15 N         136.9545  140.3068  156.1527 N.am    1  UNL1       -0.3005
     16 C         136.0102  141.3337  155.6014 C.2     1  UNL1        0.2271
     17 O         136.3015  142.7941  155.7820 O.2     1  UNL1       -0.2747
     18 H         136.7633  139.3484  156.0342 H       1  UNL1        0.1497
     19 C         134.7746  140.9003  154.8697 C.3     1  UNL1        0.1113
     20 C         133.6079  140.3446  155.6314 C.ar    1  UNL1       -0.0131
     21 C         132.3170  141.1064  155.6868 C.ar    1  UNL1       -0.0041
     22 C         131.1504  140.5507  156.4485 C.ar    1  UNL1       -0.0046
     23 C         131.2747  139.2332  157.1547 C.ar    1  UNL1       -0.0225
     24 C         132.5656  138.4714  157.0993 C.ar    1  UNL1       -0.0046
     25 C         133.7323  139.0271  156.3376 C.ar    1  UNL1       -0.0041
     26 C         130.1080  138.6775  157.9164 C.3     1  UNL1        0.0224
     27 C         129.0468  138.8357  158.9646 C.3     1  UNL1        0.0047
     28 C         129.1485  137.5568  158.1874 C.3     1  UNL1        0.0047
@<TRIPOS>BOND
     1     2     1    1
     2     2    15    1
     3    15    16   am
     4    16    17    2
     5    16    19    1
     6    19    20    1
     7    20    21   ar
     8    21    22   ar
     9    22    23   ar
    10    23    26    1
    11    26    27    1
    12    27    28    1
    13    23    24   ar
    14    24    25   ar
    15     2     3    1
    16     3     4   ar
    17     4     5   ar
    18     5     6   ar
    19     6     9    1
    20     9    10    1
    21    10    11    1
    22    11    12    1
    23    11    13    1
    24    11    14    1
    25     6     7   ar
    26     7     8   ar
    27    25    20   ar
    28     8     3   ar
    29    28    26    1
    30    15    18    1
@<TRIPOS>MOLECULE
*****
 28 30 0 0 0
SMALL
GASTEIGER

@<TRIPOS>ATOM
      1 C         144.0674  139.1814  160.6311 C.3     1  UNL1        0.0278
      2 C         143.4295  139.9559  161.7460 C.3     1  UNL1        0.1119
      3 C         142.8084  141.2932  161.4707 C.ar    1  UNL1        0.0770
      4 C         141.4401  141.3736  160.8614 C.ar    1  UNL1        0.0195
      5 C         140.8191  142.7109  160.5861 C.ar    1  UNL1        0.0398
      6 C         141.5663  143.9679  160.9201 C.ar    1  UNL1        0.1580
      7 C         142.9346  143.8876  161.5294 C.ar    1  UNL1        0.1353
      8 N         143.5556  142.5502  161.8047 N.ar    1  UNL1       -0.2433
      9 O         140.9452  145.3052  160.6448 O.3     1  UNL1       -0.4650
     10 C         140.0459  145.9387  161.6645 C.3     1  UNL1        0.3082
     11 C         139.8651  145.2959  163.0076 C.3     1  UNL1        0.4380
     12 F         139.6842  144.6530  164.3508 F       1  UNL1       -0.1663
     13 F         138.5455  144.7381  162.5630 F       1  UNL1       -0.1663
     14 F         141.1846  145.8536  163.4523 F       1  UNL1       -0.1663
     15 N         143.4127  139.3931  163.1363 N.am    1  UNL1       -0.3005
     16 C         142.2298  138.6021  163.6110 C.2     1  UNL1        0.2271
     17 O         141.0638  138.3740  162.6953 O.2     1  UNL1       -0.2747
     18 H         144.1780  139.5428  163.7373 H       1  UNL1        0.1497
     19 C         142.2130  138.0392  165.0012 C.3     1  UNL1        0.1113
     20 C         141.8454  138.9165  166.1612 C.ar    1  UNL1       -0.0131
     21 C         140.4835  139.5416  166.2267 C.ar    1  UNL1       -0.0041
     22 C         140.1160  140.4188  167.3866 C.ar    1  UNL1       -0.0046
     23 C         141.1104  140.6710  168.4809 C.ar    1  UNL1       -0.0225
     24 C         142.4723  140.0458  168.4154 C.ar    1  UNL1       -0.0046
     25 C         142.8398  139.1686  167.2555 C.ar    1  UNL1       -0.0041
     26 C         140.7428  141.5482  169.6409 C.3     1  UNL1        0.0224
     27 C         140.8896  141.9190  171.0868 C.3     1  UNL1        0.0047
     28 C         139.9594  142.6968  170.2038 C.3     1  UNL1        0.0047
@<TRIPOS>BOND
     1     2     1    1
     2     2    15    1
     3    15    16   am
     4    16    17    2
     5    16    19    1
     6    19    20    1
     7    20    21   ar
     8    21    22   ar
     9    22    23   ar
    10    23    26    1
    11    26    27    1
    12    27    28    1
    13    23    24   ar
    14    24    25   ar
    15     2     3    1
    16     3     4   ar
    17     4     5   ar
    18     5     6   ar
    19     6     9    1
    20     9    10    1
    21    10    11    1
    22    11    12    1
    23    11    13    1
    24    11    14    1
    25     6     7   ar
    26     7     8   ar
    27    25    20   ar
    28     8     3   ar
    29    28    26    1
    30    15    18    1
@<TRIPOS>MOLECULE
*****
 28 30 0 0 0
SMALL
GASTEIGER

@<TRIPOS>ATOM
      1 C         145.5185  141.9266  163.7991 C.3     1  UNL1        0.0278
      2 C         144.2053  141.7894  163.0874 C.3     1  UNL1        0.1119
      3 C         144.1763  141.4929  161.6173 C.ar    1  UNL1        0.0770
      4 C         143.7795  140.1292  161.1349 C.ar    1  UNL1        0.0195
      5 C         143.7505  139.8326  159.6648 C.ar    1  UNL1        0.0398
      6 C         144.1184  140.8998  158.6770 C.ar    1  UNL1        0.1580
      7 C         144.5153  142.2636  159.1594 C.ar    1  UNL1        0.1353
      8 N         144.5442  142.5601  160.6295 N.ar    1  UNL1       -0.2433
      9 O         144.0895  140.6033  157.2069 O.3     1  UNL1       -0.4650
     10 C         144.7428  141.5446  156.2389 C.3     1  UNL1        0.3082
     11 C         146.2009  141.3983  155.9187 C.3     1  UNL1        0.4380
     12 F         147.6590  141.2520  155.5984 F       1  UNL1       -0.1663
     13 F         145.9913  139.9413  155.6300 F       1  UNL1       -0.1663
     14 F         146.4105  142.8553  156.2074 F       1  UNL1       -0.1663
     15 N         142.9210  141.9488  163.8458 N.am    1  UNL1       -0.3005
     16 C         142.3293  143.3134  164.0405 C.2     1  UNL1        0.2271
     17 O         143.0220  144.5186  163.4768 O.2     1  UNL1       -0.2747
     18 H         142.4665  141.1577  164.2157 H       1  UNL1        0.1497
     19 C         141.0451  143.4727  164.7989 C.3     1  UNL1        0.1113
     20 C         140.2928  142.2607  165.2630 C.ar    1  UNL1       -0.0131
     21 C         139.2241  141.6639  164.3961 C.ar    1  UNL1       -0.0041
     22 C         138.4718  140.4520  164.8602 C.ar    1  UNL1       -0.0046
     23 C         138.7883  139.8370  166.1912 C.ar    1  UNL1       -0.0225
     24 C         139.8569  140.4339  167.0581 C.ar    1  UNL1       -0.0046
     25 C         140.6092  141.6457  166.5940 C.ar    1  UNL1       -0.0041
     26 C         138.0359  138.6250  166.6553 C.3     1  UNL1        0.0224
     27 C         137.0428  137.9885  167.5818 C.3     1  UNL1        0.0047
     28 C         137.7260  137.1626  166.5325 C.3     1  UNL1        0.0047
@<TRIPOS>BOND
     1     2     1    1
     2     2    15    1
     3    15    16   am
     4    16    17    2
     5    16    19    1
     6    19    20    1
     7    20    21   ar
     8    21    22   ar
     9    22    23   ar
    10    23    26    1
    11    26    27    1
    12    27    28    1
    13    23    24   ar
    14    24    25   ar
    15     2     3    1
    16     3     4   ar
    17     4     5   ar
    18     5     6   ar
    19     6     9    1
    20     9    10    1
    21    10    11    1
    22    11    12    1
    23    11    13    1
    24    11    14    1
    25     6     7   ar
    26     7     8   ar
    27    25    20   ar
    28     8     3   ar
    29    28    26    1
    30    15    18    1
