@<TRIPOS>MOLECULE
*****
 49 53 0 0 0
SMALL
GASTEIGER

@<TRIPOS>ATOM
      1 C         140.5764  142.3858  158.9585 C.ar    1  UNL1       -0.0016
      2 C         139.6204  142.4154  157.8031 C.ar    1  UNL1       -0.0003
      3 C         139.3785  143.6972  157.0623 C.ar    1  UNL1        0.0038
      4 C         140.0928  144.9494  157.4771 C.ar    1  UNL1        0.0712
      5 C         141.0489  144.9197  158.6326 C.ar    1  UNL1        0.0012
      6 C         141.2907  143.6379  159.3732 C.ar    1  UNL1       -0.0022
      7 C         140.4340  139.6040  161.7854 C.ar    1  UNL1       -0.0003
      8 C         141.3018  138.5405  161.1805 C.ar    1  UNL1        0.0009
      9 C         141.9278  138.7588  159.8350 C.ar    1  UNL1        0.0114
     10 C         141.6861  140.0406  159.0943 C.ar    1  UNL1        0.0576
     11 CL        142.3121  140.2588  157.7488 Cl      1  UNL1       -0.0822
     12 C         140.8182  141.1041  159.6991 C.ar    1  UNL1        0.0103
     13 C         140.1922  140.8858  161.0447 C.ar    1  UNL1        0.0008
     14 C         141.3118  137.2982  163.4920 C.3     1  UNL1        0.0310
     15 C         140.2468  138.2328  163.9842 C.ar    1  UNL1       -0.0218
     16 C         139.6208  138.0146  165.3297 C.ar    1  UNL1       -0.0031
     17 C         138.5558  138.9492  165.8219 C.ar    1  UNL1        0.0137
     18 C         138.1169  140.1021  164.9686 C.ar    1  UNL1        0.0011
     19 C         138.7429  140.3204  163.6231 C.ar    1  UNL1       -0.0003
     20 C         139.8079  139.3857  163.1309 C.ar    1  UNL1       -0.0040
     21 C         137.9298  138.7309  167.1675 C.2     1  UNL1        0.0729
     22 O         138.4704  139.4446  168.3709 O.co2   1  UNL1       -0.5446
     23 O         136.7631  137.7989  167.3095 O.co2   1  UNL1       -0.5446
     24 C         139.8510  146.2311  156.7364 C.3     1  UNL1        0.4186
     25 F         139.6092  147.5128  155.9958 F       1  UNL1       -0.1659
     26 F         139.6152  146.9386  158.0379 F       1  UNL1       -0.1659
     27 F         140.0868  145.5236  155.4350 F       1  UNL1       -0.1659
     28 C         142.2468  143.6083  160.5286 C.3     1  UNL1        0.1235
     29 N         141.7249  143.5127  161.9317 N.am    1  UNL1       -0.2396
     30 C         140.6508  144.3698  162.5332 C.2     1  UNL1        0.4054
     31 O         139.9100  145.4729  161.8373 O.2     1  UNL1       -0.2262
     32 O         140.4476  143.9300  163.9529 O.3     1  UNL1       -0.4320
     33 C         141.3961  142.8011  164.2287 C.3     1  UNL1        0.2107
     34 C         142.1855  142.5433  162.9796 C.3     1  UNL1        0.1232
     35 C         143.2489  141.4992  162.8084 C.3     1  UNL1        0.0258
     36 C         141.5314  142.0603  165.5259 C.ar    1  UNL1        0.0189
     37 C         140.8920  142.6029  166.7696 C.ar    1  UNL1        0.0031
     38 C         141.0272  141.8621  168.0669 C.ar    1  UNL1        0.0712
     39 C         141.8019  140.5788  168.1205 C.ar    1  UNL1        0.0077
     40 C         142.4414  140.0363  166.8768 C.ar    1  UNL1        0.0712
     41 C         142.3062  140.7770  165.5795 C.ar    1  UNL1        0.0031
     42 C         140.3878  142.4046  169.3106 C.3     1  UNL1        0.4186
     43 F         139.7483  142.9472  170.5543 F       1  UNL1       -0.1659
     44 F         140.1074  143.6971  168.6027 F       1  UNL1       -0.1659
     45 F         140.6681  141.1122  170.0185 F       1  UNL1       -0.1659
     46 C         143.2162  138.7529  166.9304 C.3     1  UNL1        0.4186
     47 F         143.9909  137.4696  166.9841 F       1  UNL1       -0.1659
     48 F         143.5135  138.8711  165.4649 F       1  UNL1       -0.1659
     49 F         142.9188  138.6348  168.3959 F       1  UNL1       -0.1659
@<TRIPOS>UNITY_ATOM_ATTR
22 1
charge -1
@<TRIPOS>BOND
     1    14    15    1
     2    15    16   ar
     3    16    17   ar
     4    17    21    1
     5    21    22   ar
     6    21    23   ar
     7    17    18   ar
     8    18    19   ar
     9    19    20   ar
    10    20     7    1
    11     7     8   ar
    12     8     9   ar
    13     9    10   ar
    14    10    11    1
    15    10    12   ar
    16    12     1    1
    17     1     2   ar
    18     2     3   ar
    19     3     4   ar
    20     4    24    1
    21    24    25    1
    22    24    26    1
    23    24    27    1
    24     4     5   ar
    25     5     6   ar
    26     6    28    1
    27    28    29    1
    28    29    30   am
    29    30    31    2
    30    30    32    1
    31    32    33    1
    32    33    36    1
    33    36    37   ar
    34    37    38   ar
    35    38    42    1
    36    42    43    1
    37    42    44    1
    38    42    45    1
    39    38    39   ar
    40    39    40   ar
    41    40    46    1
    42    46    47    1
    43    46    48    1
    44    46    49    1
    45    40    41   ar
    46    33    34    1
    47    34    35    1
    48    12    13   ar
    49    20    15   ar
    50    13     7   ar
    51     6     1   ar
    52    34    29    1
    53    41    36   ar
@<TRIPOS>MOLECULE
*****
 49 53 0 0 0
SMALL
GASTEIGER

@<TRIPOS>ATOM
      1 C         140.5279  142.3347  158.9042 C.ar    1  UNL1       -0.0016
      2 C         139.5681  142.3683  157.7519 C.ar    1  UNL1       -0.0003
      3 C         139.3330  143.6500  157.0088 C.ar    1  UNL1        0.0038
      4 C         140.0577  144.8980  157.4180 C.ar    1  UNL1        0.0712
      5 C         141.0174  144.8643  158.5704 C.ar    1  UNL1        0.0012
      6 C         141.2525  143.5826  159.3134 C.ar    1  UNL1       -0.0022
      7 C         140.3837  139.5653  161.7431 C.ar    1  UNL1       -0.0003
      8 C         141.2331  138.4898  161.1333 C.ar    1  UNL1        0.0009
      9 C         141.8475  138.6959  159.7806 C.ar    1  UNL1        0.0114
     10 C         141.6124  139.9776  159.0375 C.ar    1  UNL1        0.0576
     11 CL        142.2267  140.1837  157.6847 Cl      1  UNL1       -0.0822
     12 C         140.7630  141.0531  159.6472 C.ar    1  UNL1        0.0103
     13 C         140.1486  140.8469  161.0001 C.ar    1  UNL1        0.0008
     14 C         141.2364  137.2426  163.4396 C.3     1  UNL1        0.0310
     15 C         140.1957  138.1978  163.9442 C.ar    1  UNL1       -0.0218
     16 C         139.5813  137.9916  165.2969 C.ar    1  UNL1       -0.0031
     17 C         138.5406  138.9468  165.8015 C.ar    1  UNL1        0.0137
     18 C         138.1143  140.1081  164.9532 C.ar    1  UNL1        0.0011
     19 C         138.7286  140.3143  163.6005 C.ar    1  UNL1       -0.0003
     20 C         139.7693  139.3591  163.0959 C.ar    1  UNL1       -0.0040
     21 C         137.9263  138.7407  167.1543 C.2     1  UNL1        0.0729
     22 O         136.7631  137.8074  167.3155 O.co2   1  UNL1       -0.5446
     23 O         138.4752  139.4677  168.3460 O.co2   1  UNL1       -0.5446
     24 C         139.8226  146.1796  156.6750 C.3     1  UNL1        0.4186
     25 F         139.5875  147.4612  155.9320 F       1  UNL1       -0.1659
     26 F         139.6327  146.8996  157.9771 F       1  UNL1       -0.1659
     27 F         140.0125  145.4595  155.3729 F       1  UNL1       -0.1659
     28 C         142.2123  143.5490  160.4656 C.3     1  UNL1        0.1235
     29 N         141.6946  143.4564  161.8704 N.am    1  UNL1       -0.2396
     30 C         140.6131  144.3060  162.4694 C.2     1  UNL1        0.4054
     31 O         139.8594  145.3973  161.7687 O.2     1  UNL1       -0.2262
     32 O         140.4177  143.8725  163.8921 O.3     1  UNL1       -0.4320
     33 C         141.3784  142.7551  164.1724 C.3     1  UNL1        0.2107
     34 C         142.1675  142.4979  162.9229 C.3     1  UNL1        0.1232
     35 C         143.2411  141.4638  162.7555 C.3     1  UNL1        0.0258
     36 C         141.5242  142.0234  165.4736 C.ar    1  UNL1        0.0189
     37 C         142.2945  140.7375  165.5287 C.ar    1  UNL1        0.0031
     38 C         142.4403  140.0057  166.8299 C.ar    1  UNL1        0.0712
     39 C         141.8160  140.5599  168.0761 C.ar    1  UNL1        0.0077
     40 C         141.0457  141.8459  168.0210 C.ar    1  UNL1        0.0712
     41 C         140.8998  142.5777  166.7198 C.ar    1  UNL1        0.0031
     42 C         143.2106  138.7198  166.8850 C.3     1  UNL1        0.4186
     43 F         143.9809  137.4338  166.9401 F       1  UNL1       -0.1659
     44 F         142.9469  138.6249  168.3586 F       1  UNL1       -0.1659
     45 F         143.4743  138.8146  165.4114 F       1  UNL1       -0.1659
     46 C         140.4213  142.4001  169.2673 C.3     1  UNL1        0.4186
     47 F         139.7969  142.9543  170.5135 F       1  UNL1       -0.1659
     48 F         140.7265  141.1211  169.9890 F       1  UNL1       -0.1659
     49 F         140.1161  143.6791  168.5455 F       1  UNL1       -0.1659
@<TRIPOS>UNITY_ATOM_ATTR
22 1
charge -1
@<TRIPOS>BOND
     1    14    15    1
     2    15    16   ar
     3    16    17   ar
     4    17    21    1
     5    21    22   ar
     6    21    23   ar
     7    17    18   ar
     8    18    19   ar
     9    19    20   ar
    10    20     7    1
    11     7     8   ar
    12     8     9   ar
    13     9    10   ar
    14    10    11    1
    15    10    12   ar
    16    12     1    1
    17     1     2   ar
    18     2     3   ar
    19     3     4   ar
    20     4    24    1
    21    24    25    1
    22    24    26    1
    23    24    27    1
    24     4     5   ar
    25     5     6   ar
    26     6    28    1
    27    28    29    1
    28    29    30   am
    29    30    31    2
    30    30    32    1
    31    32    33    1
    32    33    36    1
    33    36    37   ar
    34    37    38   ar
    35    38    42    1
    36    42    43    1
    37    42    44    1
    38    42    45    1
    39    38    39   ar
    40    39    40   ar
    41    40    46    1
    42    46    47    1
    43    46    48    1
    44    46    49    1
    45    40    41   ar
    46    33    34    1
    47    34    35    1
    48    12    13   ar
    49    20    15   ar
    50    13     7   ar
    51     6     1   ar
    52    34    29    1
    53    41    36   ar
@<TRIPOS>MOLECULE
*****
 49 53 0 0 0
SMALL
GASTEIGER

@<TRIPOS>ATOM
      1 C         141.9499  142.8867  159.1072 C.ar    1  UNL1       -0.0016
      2 C         142.9221  143.7211  158.3272 C.ar    1  UNL1       -0.0003
      3 C         142.4258  144.8528  157.4768 C.ar    1  UNL1        0.0038
      4 C         140.9573  145.1500  157.4066 C.ar    1  UNL1        0.0712
      5 C         139.9850  144.3156  158.1867 C.ar    1  UNL1        0.0012
      6 C         140.4813  143.1840  159.0370 C.ar    1  UNL1       -0.0022
      7 C         143.0123  140.7797  162.2981 C.ar    1  UNL1       -0.0003
      8 C         143.4389  139.4918  161.6582 C.ar    1  UNL1        0.0009
      9 C         143.3691  139.3356  160.1680 C.ar    1  UNL1        0.0114
     10 C         142.8728  140.4672  159.3177 C.ar    1  UNL1        0.0576
     11 CL        142.8030  140.3110  157.8275 Cl      1  UNL1       -0.0822
     12 C         142.4462  141.7551  159.9575 C.ar    1  UNL1        0.0103
     13 C         142.5160  141.9113  161.4478 C.ar    1  UNL1        0.0008
     14 C         142.1210  138.5404  164.0845 C.3     1  UNL1        0.0310
     15 C         142.6365  139.8163  164.6815 C.ar    1  UNL1       -0.0218
     16 C         142.7063  139.9725  166.1717 C.ar    1  UNL1       -0.0031
     17 C         143.2218  141.2484  166.7687 C.ar    1  UNL1        0.0137
     18 C         143.6674  142.3680  165.8755 C.ar    1  UNL1        0.0011
     19 C         143.5976  142.2118  164.3854 C.ar    1  UNL1       -0.0003
     20 C         143.0821  140.9359  163.7884 C.ar    1  UNL1       -0.0040
     21 C         143.2916  141.4046  168.2590 C.2     1  UNL1        0.0729
     22 O         143.0780  140.2159  169.1485 O.co2   1  UNL1       -0.5446
     23 O         143.5750  142.7496  168.8596 O.co2   1  UNL1       -0.5446
     24 C         140.4610  146.2816  156.5563 C.3     1  UNL1        0.4186
     25 F         139.9646  147.4133  155.7060 F       1  UNL1       -0.1659
     26 F         141.2939  145.7866  155.4113 F       1  UNL1       -0.1659
     27 F         139.6280  146.7766  157.7013 F       1  UNL1       -0.1659
     28 C         139.5091  142.3496  159.8171 C.3     1  UNL1        0.1235
     29 N         139.3931  142.5250  161.3022 N.am    1  UNL1       -0.2396
     30 C         139.2652  143.8313  162.0285 C.2     1  UNL1        0.4054
     31 O         139.2309  145.1915  161.3971 O.2     1  UNL1       -0.2262
     32 O         139.1777  143.5384  163.4971 O.3     1  UNL1       -0.4320
     33 C         139.2515  142.0512  163.6784 C.3     1  UNL1        0.2107
     34 C         139.3846  141.4249  162.3219 C.3     1  UNL1        0.1232
     35 C         139.4906  139.9563  162.0355 C.3     1  UNL1        0.0258
     36 C         139.2010  141.3190  164.9865 C.ar    1  UNL1        0.0189
     37 C         139.6881  141.9861  166.2387 C.ar    1  UNL1        0.0031
     38 C         139.6377  141.2539  167.5468 C.ar    1  UNL1        0.0712
     39 C         139.1001  139.8547  167.6029 C.ar    1  UNL1        0.0077
     40 C         138.6130  139.1876  166.3508 C.ar    1  UNL1        0.0712
     41 C         138.6634  139.9198  165.0426 C.ar    1  UNL1        0.0031
     42 C         140.1248  141.9209  168.7990 C.3     1  UNL1        0.4186
     43 F         140.6120  142.5880  170.0511 F       1  UNL1       -0.1659
     44 F         140.4348  143.1628  168.0168 F       1  UNL1       -0.1659
     45 F         139.8149  140.6791  169.5811 F       1  UNL1       -0.1659
     46 C         138.0754  137.7883  166.4069 C.3     1  UNL1        0.4186
     47 F         137.5378  136.3891  166.4630 F       1  UNL1       -0.1659
     48 F         138.9811  137.3950  165.2778 F       1  UNL1       -0.1659
     49 F         137.1697  138.1817  167.5361 F       1  UNL1       -0.1659
@<TRIPOS>UNITY_ATOM_ATTR
22 1
charge -1
@<TRIPOS>BOND
     1    14    15    1
     2    15    16   ar
     3    16    17   ar
     4    17    21    1
     5    21    22   ar
     6    21    23   ar
     7    17    18   ar
     8    18    19   ar
     9    19    20   ar
    10    20     7    1
    11     7     8   ar
    12     8     9   ar
    13     9    10   ar
    14    10    11    1
    15    10    12   ar
    16    12     1    1
    17     1     2   ar
    18     2     3   ar
    19     3     4   ar
    20     4    24    1
    21    24    25    1
    22    24    26    1
    23    24    27    1
    24     4     5   ar
    25     5     6   ar
    26     6    28    1
    27    28    29    1
    28    29    30   am
    29    30    31    2
    30    30    32    1
    31    32    33    1
    32    33    36    1
    33    36    37   ar
    34    37    38   ar
    35    38    42    1
    36    42    43    1
    37    42    44    1
    38    42    45    1
    39    38    39   ar
    40    39    40   ar
    41    40    46    1
    42    46    47    1
    43    46    48    1
    44    46    49    1
    45    40    41   ar
    46    33    34    1
    47    34    35    1
    48    12    13   ar
    49    20    15   ar
    50    13     7   ar
    51     6     1   ar
    52    34    29    1
    53    41    36   ar
@<TRIPOS>MOLECULE
*****
 49 53 0 0 0
SMALL
GASTEIGER

@<TRIPOS>ATOM
      1 C         142.1802  142.4555  159.4368 C.ar    1  UNL1       -0.0016
      2 C         143.2237  143.2467  158.7053 C.ar    1  UNL1       -0.0003
      3 C         142.8133  144.3482  157.7734 C.ar    1  UNL1        0.0038
      4 C         141.3595  144.6584  157.5731 C.ar    1  UNL1        0.0712
      5 C         140.3160  143.8672  158.3047 C.ar    1  UNL1        0.0012
      6 C         140.7264  142.7658  159.2365 C.ar    1  UNL1       -0.0022
      7 C         143.0494  140.5003  162.7792 C.ar    1  UNL1       -0.0003
      8 C         143.4113  139.1512  162.2325 C.ar    1  UNL1        0.0009
      9 C         143.3628  138.9035  160.7539 C.ar    1  UNL1        0.0114
     10 C         142.9525  140.0049  159.8220 C.ar    1  UNL1        0.0576
     11 CL        142.9040  139.7573  158.3434 Cl      1  UNL1       -0.0822
     12 C         142.5906  141.3541  160.3687 C.ar    1  UNL1        0.0103
     13 C         142.6390  141.6017  161.8474 C.ar    1  UNL1        0.0008
     14 C         142.1771  138.3570  164.6885 C.3     1  UNL1        0.0310
     15 C         142.6617  139.6763  165.2125 C.ar    1  UNL1       -0.0218
     16 C         142.7102  139.9240  166.6911 C.ar    1  UNL1       -0.0031
     17 C         143.1948  141.2433  167.2151 C.ar    1  UNL1        0.0137
     18 C         143.6310  142.3149  166.2604 C.ar    1  UNL1        0.0011
     19 C         143.5825  142.0672  164.7819 C.ar    1  UNL1       -0.0003
     20 C         143.0979  140.7479  164.2579 C.ar    1  UNL1       -0.0040
     21 C         143.2433  141.4909  168.6937 C.2     1  UNL1        0.0729
     22 O         143.3780  142.8907  169.2157 O.co2   1  UNL1       -0.5446
     23 O         143.1571  140.3388  169.6503 O.co2   1  UNL1       -0.5446
     24 C         140.9491  145.7599  156.6412 C.3     1  UNL1        0.4186
     25 F         140.5388  146.8613  155.7094 F       1  UNL1       -0.1659
     26 F         139.5663  145.7360  157.2219 F       1  UNL1       -0.1659
     27 F         142.3319  145.7837  156.0605 F       1  UNL1       -0.1659
     28 C         139.6829  141.9746  159.9680 C.3     1  UNL1        0.1235
     29 N         139.4758  142.1855  161.4386 N.am    1  UNL1       -0.2396
     30 C         139.2538  143.5047  162.1175 C.2     1  UNL1        0.4054
     31 O         139.2000  144.8444  161.4449 O.2     1  UNL1       -0.2262
     32 O         139.0951  143.2488  163.5870 O.3     1  UNL1       -0.4320
     33 C         139.2189  141.7716  163.8163 C.3     1  UNL1        0.2107
     34 C         139.4542  141.1145  162.4886 C.3     1  UNL1        0.1232
     35 C         139.6360  139.6444  162.2523 C.3     1  UNL1        0.0258
     36 C         139.1242  141.0741  165.1408 C.ar    1  UNL1        0.0189
     37 C         138.5429  139.6936  165.2215 C.ar    1  UNL1        0.0031
     38 C         138.4481  138.9960  166.5460 C.ar    1  UNL1        0.0712
     39 C         138.9345  139.6788  167.7898 C.ar    1  UNL1        0.0077
     40 C         139.5158  141.0593  167.7091 C.ar    1  UNL1        0.0712
     41 C         139.6106  141.7569  166.3846 C.ar    1  UNL1        0.0031
     42 C         137.8669  137.6155  166.6267 C.3     1  UNL1        0.4186
     43 F         137.2856  136.2350  166.7074 F       1  UNL1       -0.1659
     44 F         138.7801  137.1666  165.5247 F       1  UNL1       -0.1659
     45 F         136.9536  138.0644  167.7288 F       1  UNL1       -0.1659
     46 C         140.0022  141.7422  168.9530 C.3     1  UNL1        0.4186
     47 F         140.4887  142.4250  170.1968 F       1  UNL1       -0.1659
     48 F         140.2737  142.9880  168.1630 F       1  UNL1       -0.1659
     49 F         139.7308  140.4963  169.7430 F       1  UNL1       -0.1659
@<TRIPOS>UNITY_ATOM_ATTR
22 1
charge -1
@<TRIPOS>BOND
     1    14    15    1
     2    15    16   ar
     3    16    17   ar
     4    17    21    1
     5    21    22   ar
     6    21    23   ar
     7    17    18   ar
     8    18    19   ar
     9    19    20   ar
    10    20     7    1
    11     7     8   ar
    12     8     9   ar
    13     9    10   ar
    14    10    11    1
    15    10    12   ar
    16    12     1    1
    17     1     2   ar
    18     2     3   ar
    19     3     4   ar
    20     4    24    1
    21    24    25    1
    22    24    26    1
    23    24    27    1
    24     4     5   ar
    25     5     6   ar
    26     6    28    1
    27    28    29    1
    28    29    30   am
    29    30    31    2
    30    30    32    1
    31    32    33    1
    32    33    36    1
    33    36    37   ar
    34    37    38   ar
    35    38    42    1
    36    42    43    1
    37    42    44    1
    38    42    45    1
    39    38    39   ar
    40    39    40   ar
    41    40    46    1
    42    46    47    1
    43    46    48    1
    44    46    49    1
    45    40    41   ar
    46    33    34    1
    47    34    35    1
    48    12    13   ar
    49    20    15   ar
    50    13     7   ar
    51     6     1   ar
    52    34    29    1
    53    41    36   ar
@<TRIPOS>MOLECULE
*****
 49 53 0 0 0
SMALL
GASTEIGER

@<TRIPOS>ATOM
      1 C         140.2458  142.3516  165.7659 C.ar    1  UNL1       -0.0016
      2 C         141.1136  142.7587  166.9195 C.ar    1  UNL1       -0.0003
      3 C         141.0352  142.0110  168.2176 C.ar    1  UNL1        0.0038
      4 C         140.0889  140.8561  168.3618 C.ar    1  UNL1        0.0712
      5 C         139.2210  140.4491  167.2081 C.ar    1  UNL1        0.0012
      6 C         139.2994  141.1968  165.9101 C.ar    1  UNL1       -0.0022
      7 C         141.3161  143.3664  162.0815 C.ar    1  UNL1       -0.0003
      8 C         140.4812  144.5948  161.8720 C.ar    1  UNL1        0.0009
      9 C         139.5677  145.0754  162.9603 C.ar    1  UNL1        0.0114
     10 C         139.4892  144.3277  164.2583 C.ar    1  UNL1        0.0576
     11 CL        138.5758  144.8083  165.3467 Cl      1  UNL1       -0.0822
     12 C         140.3242  143.0993  164.4679 C.ar    1  UNL1        0.0103
     13 C         141.2377  142.6187  163.3795 C.ar    1  UNL1        0.0008
     14 C         144.2814  143.7439  162.3362 C.3     1  UNL1        0.0310
     15 C         143.7122  143.0745  161.1204 C.ar    1  UNL1       -0.0218
     16 C         144.6256  142.5939  160.0320 C.ar    1  UNL1       -0.0031
     17 C         144.0564  141.9246  158.8163 C.ar    1  UNL1        0.0137
     18 C         142.5738  141.7359  158.6889 C.ar    1  UNL1        0.0011
     19 C         141.6604  142.2165  159.7774 C.ar    1  UNL1       -0.0003
     20 C         142.2296  142.8858  160.9931 C.ar    1  UNL1       -0.0040
     21 C         144.9699  141.4440  157.7278 C.2     1  UNL1        0.0729
     22 O         144.8596  140.0356  157.2236 O.co2   1  UNL1       -0.5446
     23 O         145.9936  142.3718  157.1437 O.co2   1  UNL1       -0.5446
     24 C         140.0104  140.1084  169.6598 C.3     1  UNL1        0.4186
     25 F         139.9320  139.3607  170.9577 F       1  UNL1       -0.1659
     26 F         141.2717  139.3742  169.3131 F       1  UNL1       -0.1659
     27 F         138.7492  140.8426  170.0065 F       1  UNL1       -0.1659
     28 C         138.4315  140.7897  164.7565 C.3     1  UNL1        0.1235
     29 N         139.0094  139.9840  163.6309 N.am    1  UNL1       -0.2396
     30 C         139.7592  138.6917  163.7659 C.2     1  UNL1        0.4054
     31 O         140.0627  137.9784  165.0500 O.2     1  UNL1       -0.2262
     32 O         140.1521  138.2382  162.3911 O.3     1  UNL1       -0.4320
     33 C         139.6452  139.2499  161.4066 C.3     1  UNL1        0.2107
     34 C         138.9390  140.3289  162.1728 C.3     1  UNL1        0.1232
     35 C         138.2783  141.5401  161.5843 C.3     1  UNL1        0.0258
     36 C         139.8148  139.1928  159.9173 C.ar    1  UNL1        0.0189
     37 C         140.9744  138.4502  159.3225 C.ar    1  UNL1        0.0031
     38 C         141.1441  138.3930  157.8333 C.ar    1  UNL1        0.0712
     39 C         140.1541  139.0784  156.9388 C.ar    1  UNL1        0.0077
     40 C         138.9944  139.8210  157.5336 C.ar    1  UNL1        0.0712
     41 C         138.8248  139.8782  159.0229 C.ar    1  UNL1        0.0031
     42 C         142.3037  137.6504  157.2385 C.3     1  UNL1        0.4186
     43 F         143.4634  136.9078  156.6437 F       1  UNL1       -0.1659
     44 F         143.0409  137.7587  158.5404 F       1  UNL1       -0.1659
     45 F         141.5666  137.5420  155.9366 F       1  UNL1       -0.1659
     46 C         138.0043  140.5064  156.6391 C.3     1  UNL1        0.4186
     47 F         137.0143  141.1917  155.7446 F       1  UNL1       -0.1659
     48 F         138.9349  140.3321  155.4756 F       1  UNL1       -0.1659
     49 F         137.0738  140.6806  157.8026 F       1  UNL1       -0.1659
@<TRIPOS>UNITY_ATOM_ATTR
22 1
charge -1
@<TRIPOS>BOND
     1    14    15    1
     2    15    16   ar
     3    16    17   ar
     4    17    21    1
     5    21    22   ar
     6    21    23   ar
     7    17    18   ar
     8    18    19   ar
     9    19    20   ar
    10    20     7    1
    11     7     8   ar
    12     8     9   ar
    13     9    10   ar
    14    10    11    1
    15    10    12   ar
    16    12     1    1
    17     1     2   ar
    18     2     3   ar
    19     3     4   ar
    20     4    24    1
    21    24    25    1
    22    24    26    1
    23    24    27    1
    24     4     5   ar
    25     5     6   ar
    26     6    28    1
    27    28    29    1
    28    29    30   am
    29    30    31    2
    30    30    32    1
    31    32    33    1
    32    33    36    1
    33    36    37   ar
    34    37    38   ar
    35    38    42    1
    36    42    43    1
    37    42    44    1
    38    42    45    1
    39    38    39   ar
    40    39    40   ar
    41    40    46    1
    42    46    47    1
    43    46    48    1
    44    46    49    1
    45    40    41   ar
    46    33    34    1
    47    34    35    1
    48    12    13   ar
    49    20    15   ar
    50    13     7   ar
    51     6     1   ar
    52    34    29    1
    53    41    36   ar
@<TRIPOS>MOLECULE
*****
 49 53 0 0 0
SMALL
GASTEIGER

@<TRIPOS>ATOM
      1 C         140.8767  139.6333  164.8558 C.ar    1  UNL1       -0.0016
      2 C         140.3294  140.4387  165.9967 C.ar    1  UNL1       -0.0003
      3 C         139.1925  139.9029  166.8156 C.ar    1  UNL1        0.0038
      4 C         138.6030  138.5617  166.4936 C.ar    1  UNL1        0.0712
      5 C         139.1504  137.7563  165.3526 C.ar    1  UNL1        0.0012
      6 C         140.2872  138.2921  164.5338 C.ar    1  UNL1       -0.0022
      7 C         142.8752  141.6158  162.0584 C.ar    1  UNL1       -0.0003
      8 C         144.2870  141.2407  162.3991 C.ar    1  UNL1        0.0009
      9 C         144.5621  140.3298  163.5586 C.ar    1  UNL1        0.0114
     10 C         143.4253  139.7940  164.3776 C.ar    1  UNL1        0.0576
     11 CL        143.7003  138.8831  165.5372 Cl      1  UNL1       -0.0822
     12 C         142.0134  140.1691  164.0369 C.ar    1  UNL1        0.0103
     13 C         141.7384  141.0800  162.8773 C.ar    1  UNL1        0.0008
     14 C         144.0677  141.0236  159.3700 C.3     1  UNL1        0.0310
     15 C         143.1964  142.2306  159.5546 C.ar    1  UNL1       -0.0218
     16 C         142.9214  143.1415  158.3951 C.ar    1  UNL1       -0.0031
     17 C         142.0501  144.3485  158.5797 C.ar    1  UNL1        0.0137
     18 C         141.4539  144.6445  159.9238 C.ar    1  UNL1        0.0011
     19 C         141.7289  143.7337  161.0833 C.ar    1  UNL1       -0.0003
     20 C         142.6002  142.5267  160.8987 C.ar    1  UNL1       -0.0040
     21 C         141.7751  145.2594  157.4200 C.2     1  UNL1        0.0729
     22 O         142.6011  145.1553  156.1723 O.co2   1  UNL1       -0.5446
     23 O         140.6742  146.2743  157.5082 O.co2   1  UNL1       -0.5446
     24 C         137.4663  138.0259  167.3125 C.3     1  UNL1        0.4186
     25 F         136.3295  137.4901  168.1314 F       1  UNL1       -0.1659
     26 F         137.3476  136.8555  166.3820 F       1  UNL1       -0.1659
     27 F         137.5849  139.1964  168.2430 F       1  UNL1       -0.1659
     28 C         140.8345  137.4867  163.3929 C.3     1  UNL1        0.1235
     29 N         140.5143  137.8742  161.9796 N.am    1  UNL1       -0.2396
     30 C         139.1418  138.0889  161.4136 C.2     1  UNL1        0.4054
     31 O         137.8486  137.9538  162.1615 O.2     1  UNL1       -0.2262
     32 O         139.2897  138.4625  159.9684 O.3     1  UNL1       -0.4320
     33 C         140.7535  138.4787  159.6412 C.3     1  UNL1        0.2107
     34 C         141.5103  138.1151  160.8842 C.3     1  UNL1        0.1232
     35 C         143.0014  138.0107  161.0097 C.3     1  UNL1        0.0258
     36 C         141.3548  138.8017  158.3056 C.ar    1  UNL1        0.0189
     37 C         140.9822  140.0738  157.6033 C.ar    1  UNL1        0.0031
     38 C         141.5835  140.3969  156.2676 C.ar    1  UNL1        0.0712
     39 C         142.5573  139.4480  155.6342 C.ar    1  UNL1        0.0077
     40 C         142.9299  138.1760  156.3365 C.ar    1  UNL1        0.0712
     41 C         142.3286  137.8529  157.6722 C.ar    1  UNL1        0.0031
     42 C         141.2109  141.6689  155.5653 C.3     1  UNL1        0.4186
     43 F         140.8383  142.9409  154.8630 F       1  UNL1       -0.1659
     44 F         139.7609  141.3904  155.8300 F       1  UNL1       -0.1659
     45 F         142.6609  141.9474  155.3006 F       1  UNL1       -0.1659
     46 C         143.9038  137.2270  155.7030 C.3     1  UNL1        0.4186
     47 F         144.8776  136.2782  155.0696 F       1  UNL1       -0.1659
     48 F         143.4615  136.1453  156.6434 F       1  UNL1       -0.1659
     49 F         144.3460  138.3089  154.7627 F       1  UNL1       -0.1659
@<TRIPOS>UNITY_ATOM_ATTR
22 1
charge -1
@<TRIPOS>BOND
     1    14    15    1
     2    15    16   ar
     3    16    17   ar
     4    17    21    1
     5    21    22   ar
     6    21    23   ar
     7    17    18   ar
     8    18    19   ar
     9    19    20   ar
    10    20     7    1
    11     7     8   ar
    12     8     9   ar
    13     9    10   ar
    14    10    11    1
    15    10    12   ar
    16    12     1    1
    17     1     2   ar
    18     2     3   ar
    19     3     4   ar
    20     4    24    1
    21    24    25    1
    22    24    26    1
    23    24    27    1
    24     4     5   ar
    25     5     6   ar
    26     6    28    1
    27    28    29    1
    28    29    30   am
    29    30    31    2
    30    30    32    1
    31    32    33    1
    32    33    36    1
    33    36    37   ar
    34    37    38   ar
    35    38    42    1
    36    42    43    1
    37    42    44    1
    38    42    45    1
    39    38    39   ar
    40    39    40   ar
    41    40    46    1
    42    46    47    1
    43    46    48    1
    44    46    49    1
    45    40    41   ar
    46    33    34    1
    47    34    35    1
    48    12    13   ar
    49    20    15   ar
    50    13     7   ar
    51     6     1   ar
    52    34    29    1
    53    41    36   ar
@<TRIPOS>MOLECULE
*****
 49 53 0 0 0
SMALL
GASTEIGER

@<TRIPOS>ATOM
      1 C         141.0672  141.9057  158.3323 C.ar    1  UNL1       -0.0016
      2 C         141.9925  142.5808  157.3637 C.ar    1  UNL1       -0.0003
      3 C         141.6337  143.9212  156.7938 C.ar    1  UNL1        0.0038
      4 C         140.3498  144.5864  157.1924 C.ar    1  UNL1        0.0712
      5 C         139.4245  143.9113  158.1611 C.ar    1  UNL1        0.0012
      6 C         139.7833  142.5709  158.7309 C.ar    1  UNL1       -0.0022
      7 C         142.1280  139.0961  160.9266 C.ar    1  UNL1       -0.0003
      8 C         142.1435  137.8847  160.0420 C.ar    1  UNL1        0.0009
      9 C         141.8002  138.0137  158.5875 C.ar    1  UNL1        0.0114
     10 C         141.4415  139.3541  158.0176 C.ar    1  UNL1        0.0576
     11 CL        141.0982  139.4831  156.5631 Cl      1  UNL1       -0.0822
     12 C         141.4260  140.5654  158.9022 C.ar    1  UNL1        0.0103
     13 C         141.7692  140.4364  160.3567 C.ar    1  UNL1        0.0008
     14 C         144.6221  140.3732  161.9983 C.3     1  UNL1        0.0310
     15 C         143.7183  139.6055  162.9169 C.ar    1  UNL1       -0.0218
     16 C         144.0615  139.4765  164.3714 C.ar    1  UNL1       -0.0031
     17 C         143.1577  138.7088  165.2900 C.ar    1  UNL1        0.0137
     18 C         141.9107  138.0703  164.7542 C.ar    1  UNL1        0.0011
     19 C         141.5674  138.1994  163.2997 C.ar    1  UNL1       -0.0003
     20 C         142.4713  138.9670  162.3811 C.ar    1  UNL1       -0.0040
     21 C         143.5010  138.5798  166.7446 C.2     1  UNL1        0.0729
     22 O         144.4127  137.4815  167.2054 O.co2   1  UNL1       -0.5446
     23 O         142.9324  139.5491  167.7382 O.co2   1  UNL1       -0.5446
     24 C         139.9910  145.9268  156.6226 C.3     1  UNL1        0.4186
     25 F         139.6323  147.2671  156.0527 F       1  UNL1       -0.1659
     26 F         141.2034  146.5268  157.2706 F       1  UNL1       -0.1659
     27 F         138.7787  145.3267  155.9745 F       1  UNL1       -0.1659
     28 C         138.8580  141.8958  159.6995 C.3     1  UNL1        0.1235
     29 N         139.0062  142.1393  161.1722 N.am    1  UNL1       -0.2396
     30 C         139.2435  143.4680  161.8267 C.2     1  UNL1        0.4054
     31 O         139.3743  144.7865  161.1236 O.2     1  UNL1       -0.2262
     32 O         139.3269  143.2466  163.3080 O.3     1  UNL1       -0.4320
     33 C         139.1412  141.7811  163.5689 C.3     1  UNL1        0.2107
     34 C         138.9430  141.0968  162.2489 C.3     1  UNL1        0.1232
     35 C         138.7206  139.6279  162.0420 C.3     1  UNL1        0.0258
     36 C         139.1519  141.1168  164.9136 C.ar    1  UNL1        0.0189
     37 C         139.8059  141.7958  166.0804 C.ar    1  UNL1        0.0031
     38 C         139.8167  141.1315  167.4252 C.ar    1  UNL1        0.0712
     39 C         139.1734  139.7882  167.6033 C.ar    1  UNL1        0.0077
     40 C         138.5194  139.1092  166.4365 C.ar    1  UNL1        0.0712
     41 C         138.5086  139.7735  165.0917 C.ar    1  UNL1        0.0031
     42 C         140.4707  141.8104  168.5920 C.3     1  UNL1        0.4186
     43 F         141.1247  142.4894  169.7587 F       1  UNL1       -0.1659
     44 F         140.4999  143.0995  167.8255 F       1  UNL1       -0.1659
     45 F         140.4415  140.5214  169.3585 F       1  UNL1       -0.1659
     46 C         137.8761  137.7658  166.6147 C.3     1  UNL1        0.4186
     47 F         137.2328  136.4225  166.7927 F       1  UNL1       -0.1659
     48 F         137.0481  138.3115  167.7401 F       1  UNL1       -0.1659
     49 F         138.7041  137.2202  165.4892 F       1  UNL1       -0.1659
@<TRIPOS>UNITY_ATOM_ATTR
22 1
charge -1
@<TRIPOS>BOND
     1    14    15    1
     2    15    16   ar
     3    16    17   ar
     4    17    21    1
     5    21    22   ar
     6    21    23   ar
     7    17    18   ar
     8    18    19   ar
     9    19    20   ar
    10    20     7    1
    11     7     8   ar
    12     8     9   ar
    13     9    10   ar
    14    10    11    1
    15    10    12   ar
    16    12     1    1
    17     1     2   ar
    18     2     3   ar
    19     3     4   ar
    20     4    24    1
    21    24    25    1
    22    24    26    1
    23    24    27    1
    24     4     5   ar
    25     5     6   ar
    26     6    28    1
    27    28    29    1
    28    29    30   am
    29    30    31    2
    30    30    32    1
    31    32    33    1
    32    33    36    1
    33    36    37   ar
    34    37    38   ar
    35    38    42    1
    36    42    43    1
    37    42    44    1
    38    42    45    1
    39    38    39   ar
    40    39    40   ar
    41    40    46    1
    42    46    47    1
    43    46    48    1
    44    46    49    1
    45    40    41   ar
    46    33    34    1
    47    34    35    1
    48    12    13   ar
    49    20    15   ar
    50    13     7   ar
    51     6     1   ar
    52    34    29    1
    53    41    36   ar
@<TRIPOS>MOLECULE
*****
 49 53 0 0 0
SMALL
GASTEIGER

@<TRIPOS>ATOM
      1 C         140.5364  140.8546  165.9367 C.ar    1  UNL1       -0.0016
      2 C         140.5027  141.8985  167.0133 C.ar    1  UNL1       -0.0003
      3 C         141.3325  141.7265  168.2510 C.ar    1  UNL1        0.0038
      4 C         142.1960  140.5106  168.4121 C.ar    1  UNL1        0.0712
      5 C         142.2296  139.4666  167.3355 C.ar    1  UNL1        0.0012
      6 C         141.3999  139.6386  166.0978 C.ar    1  UNL1       -0.0022
      7 C         139.3600  142.0846  162.3516 C.ar    1  UNL1       -0.0003
      8 C         138.0471  141.3706  162.2237 C.ar    1  UNL1        0.0009
      9 C         137.5639  140.4846  163.3334 C.ar    1  UNL1        0.0114
     10 C         138.3937  140.3126  164.5711 C.ar    1  UNL1        0.0576
     11 CL        137.9105  139.4266  165.6808 Cl      1  UNL1       -0.0822
     12 C         139.7066  141.0266  164.6991 C.ar    1  UNL1        0.0103
     13 C         140.1898  141.9126  163.5893 C.ar    1  UNL1        0.0008
     14 C         139.1060  145.0642  162.5923 C.3     1  UNL1        0.0310
     15 C         139.7162  144.4604  161.3622 C.ar    1  UNL1       -0.0218
     16 C         140.1993  145.3463  160.2524 C.ar    1  UNL1       -0.0031
     17 C         140.8095  144.7426  159.0223 C.ar    1  UNL1        0.0137
     18 C         140.9366  143.2528  158.9020 C.ar    1  UNL1        0.0011
     19 C         140.4534  142.3669  160.0117 C.ar    1  UNL1       -0.0003
     20 C         139.8432  142.9707  161.2418 C.ar    1  UNL1       -0.0040
     21 C         141.2927  145.6286  157.9125 C.2     1  UNL1        0.0729
     22 O         140.4274  145.8641  156.7101 O.co2   1  UNL1       -0.5446
     23 O         142.6411  146.2791  158.0052 O.co2   1  UNL1       -0.5446
     24 C         143.0258  140.3386  169.6498 C.3     1  UNL1        0.4186
     25 F         143.8555  140.1666  170.8875 F       1  UNL1       -0.1659
     26 F         142.4449  138.9701  169.8490 F       1  UNL1       -0.1659
     27 F         143.6066  141.7071  169.4505 F       1  UNL1       -0.1659
     28 C         141.4336  138.5947  165.0213 C.3     1  UNL1        0.1235
     29 N         142.2995  138.7916  163.8124 N.am    1  UNL1       -0.2396
     30 C         143.7780  139.0452  163.8188 C.2     1  UNL1        0.4054
     31 O         144.6500  139.1462  165.0350 O.2     1  UNL1       -0.2262
     32 O         144.2312  139.1798  162.3952 O.3     1  UNL1       -0.4320
     33 C         143.0330  139.0096  161.5091 C.3     1  UNL1        0.2107
     34 C         141.8391  138.7697  162.3850 C.3     1  UNL1        0.1232
     35 C         140.4319  138.5469  161.9158 C.3     1  UNL1        0.0258
     36 C         143.0293  139.0688  160.0103 C.ar    1  UNL1        0.0189
     37 C         143.4439  140.3280  159.3085 C.ar    1  UNL1        0.0031
     38 C         143.4402  140.3874  157.8097 C.ar    1  UNL1        0.0712
     39 C         143.0219  139.1875  157.0127 C.ar    1  UNL1        0.0077
     40 C         142.6073  137.9283  157.7145 C.ar    1  UNL1        0.0712
     41 C         142.6110  137.8689  159.2133 C.ar    1  UNL1        0.0031
     42 C         143.8549  141.6466  157.1079 C.3     1  UNL1        0.4186
     43 F         144.2695  142.9058  156.4061 F       1  UNL1       -0.1659
     44 F         145.1881  141.5894  157.7930 F       1  UNL1       -0.1659
     45 F         142.5216  141.7038  156.4228 F       1  UNL1       -0.1659
     46 C         142.1890  136.7283  156.9174 C.3     1  UNL1        0.4186
     47 F         141.7707  135.5285  156.1203 F       1  UNL1       -0.1659
     48 F         140.7502  137.1166  157.0880 F       1  UNL1       -0.1659
     49 F         143.6278  136.3402  156.7468 F       1  UNL1       -0.1659
@<TRIPOS>UNITY_ATOM_ATTR
22 1
charge -1
@<TRIPOS>BOND
     1    14    15    1
     2    15    16   ar
     3    16    17   ar
     4    17    21    1
     5    21    22   ar
     6    21    23   ar
     7    17    18   ar
     8    18    19   ar
     9    19    20   ar
    10    20     7    1
    11     7     8   ar
    12     8     9   ar
    13     9    10   ar
    14    10    11    1
    15    10    12   ar
    16    12     1    1
    17     1     2   ar
    18     2     3   ar
    19     3     4   ar
    20     4    24    1
    21    24    25    1
    22    24    26    1
    23    24    27    1
    24     4     5   ar
    25     5     6   ar
    26     6    28    1
    27    28    29    1
    28    29    30   am
    29    30    31    2
    30    30    32    1
    31    32    33    1
    32    33    36    1
    33    36    37   ar
    34    37    38   ar
    35    38    42    1
    36    42    43    1
    37    42    44    1
    38    42    45    1
    39    38    39   ar
    40    39    40   ar
    41    40    46    1
    42    46    47    1
    43    46    48    1
    44    46    49    1
    45    40    41   ar
    46    33    34    1
    47    34    35    1
    48    12    13   ar
    49    20    15   ar
    50    13     7   ar
    51     6     1   ar
    52    34    29    1
    53    41    36   ar
@<TRIPOS>MOLECULE
*****
 49 53 0 0 0
SMALL
GASTEIGER

@<TRIPOS>ATOM
      1 C         140.5116  140.8070  166.0847 C.ar    1  UNL1       -0.0016
      2 C         140.4785  141.8371  167.1745 C.ar    1  UNL1       -0.0003
      3 C         141.3157  141.6536  168.4056 C.ar    1  UNL1        0.0038
      4 C         142.1858  140.4400  168.5468 C.ar    1  UNL1        0.0712
      5 C         142.2189  139.4099  167.4569 C.ar    1  UNL1        0.0012
      6 C         141.3818  139.5934  166.2259 C.ar    1  UNL1       -0.0022
      7 C         139.3047  142.0858  162.5268 C.ar    1  UNL1       -0.0003
      8 C         138.0002  141.3577  162.3915 C.ar    1  UNL1        0.0009
      9 C         137.5329  140.4461  163.4871 C.ar    1  UNL1        0.0114
     10 C         138.3700  140.2626  164.7183 C.ar    1  UNL1        0.0576
     11 CL        137.9026  139.3510  165.8139 Cl      1  UNL1       -0.0822
     12 C         139.6745  140.9906  164.8536 C.ar    1  UNL1        0.0103
     13 C         140.1418  141.9022  163.7579 C.ar    1  UNL1        0.0008
     14 C         139.1016  145.0602  162.8612 C.3     1  UNL1        0.0310
     15 C         139.6705  144.4845  161.5983 C.ar    1  UNL1       -0.0218
     16 C         140.1378  145.3961  160.5026 C.ar    1  UNL1       -0.0031
     17 C         140.7067  144.8204  159.2396 C.ar    1  UNL1        0.0137
     18 C         140.8083  143.3333  159.0724 C.ar    1  UNL1        0.0011
     19 C         140.3409  142.4218  160.1681 C.ar    1  UNL1       -0.0003
     20 C         139.7721  142.9974  161.4311 C.ar    1  UNL1       -0.0040
     21 C         141.1741  145.7321  158.1439 C.2     1  UNL1        0.0729
     22 O         140.1736  146.4656  157.3007 O.co2   1  UNL1       -0.5446
     23 O         142.6419  145.9101  157.8913 O.co2   1  UNL1       -0.5446
     24 C         143.0229  140.2565  169.7779 C.3     1  UNL1        0.4186
     25 F         143.8600  140.0729  171.0089 F       1  UNL1       -0.1659
     26 F         143.6944  141.5722  169.5174 F       1  UNL1       -0.1659
     27 F         142.3514  138.9407  170.0383 F       1  UNL1       -0.1659
     28 C         141.4148  138.5634  165.1360 C.3     1  UNL1        0.1235
     29 N         142.2635  138.7857  163.9193 N.am    1  UNL1       -0.2396
     30 C         143.7400  139.0504  163.9106 C.2     1  UNL1        0.4054
     31 O         144.6270  139.1392  165.1170 O.2     1  UNL1       -0.2262
     32 O         144.1737  139.2107  162.4836 O.3     1  UNL1       -0.4320
     33 C         142.9653  139.0451  161.6105 C.3     1  UNL1        0.2107
     34 C         141.7848  138.7825  162.4978 C.3     1  UNL1        0.1232
     35 C         140.3733  138.5563  162.0433 C.3     1  UNL1        0.0258
     36 C         142.9417  139.1277  160.1130 C.ar    1  UNL1        0.0189
     37 C         142.5116  137.9405  159.3031 C.ar    1  UNL1        0.0031
     38 C         142.4880  138.0230  157.8056 C.ar    1  UNL1        0.0712
     39 C         142.8943  139.2926  157.1179 C.ar    1  UNL1        0.0077
     40 C         143.3244  140.4798  157.9278 C.ar    1  UNL1        0.0712
     41 C         143.3480  140.3973  159.4253 C.ar    1  UNL1        0.0031
     42 C         142.0579  136.8359  156.9957 C.3     1  UNL1        0.4186
     43 F         141.6279  135.6488  156.1859 F       1  UNL1       -0.1659
     44 F         143.2661  136.0795  157.4629 F       1  UNL1       -0.1659
     45 F         140.8497  137.5923  156.5286 F       1  UNL1       -0.1659
     46 C         143.7308  141.7494  157.2400 C.3     1  UNL1        0.4186
     47 F         144.1372  143.0190  156.5524 F       1  UNL1       -0.1659
     48 F         143.5829  141.0754  155.9082 F       1  UNL1       -0.1659
     49 F         143.8786  142.4234  158.5719 F       1  UNL1       -0.1659
@<TRIPOS>UNITY_ATOM_ATTR
22 1
charge -1
@<TRIPOS>BOND
     1    14    15    1
     2    15    16   ar
     3    16    17   ar
     4    17    21    1
     5    21    22   ar
     6    21    23   ar
     7    17    18   ar
     8    18    19   ar
     9    19    20   ar
    10    20     7    1
    11     7     8   ar
    12     8     9   ar
    13     9    10   ar
    14    10    11    1
    15    10    12   ar
    16    12     1    1
    17     1     2   ar
    18     2     3   ar
    19     3     4   ar
    20     4    24    1
    21    24    25    1
    22    24    26    1
    23    24    27    1
    24     4     5   ar
    25     5     6   ar
    26     6    28    1
    27    28    29    1
    28    29    30   am
    29    30    31    2
    30    30    32    1
    31    32    33    1
    32    33    36    1
    33    36    37   ar
    34    37    38   ar
    35    38    42    1
    36    42    43    1
    37    42    44    1
    38    42    45    1
    39    38    39   ar
    40    39    40   ar
    41    40    46    1
    42    46    47    1
    43    46    48    1
    44    46    49    1
    45    40    41   ar
    46    33    34    1
    47    34    35    1
    48    12    13   ar
    49    20    15   ar
    50    13     7   ar
    51     6     1   ar
    52    34    29    1
    53    41    36   ar
