@<TRIPOS>MOLECULE
*****
 27 29 0 0 0
SMALL
GASTEIGER

@<TRIPOS>ATOM
      1 C         141.4947  142.5242  166.4784 C.2     1  UNL1        0.2673
      2 O         142.9653  142.2770  166.3162 O.2     1  UNL1       -0.2682
      3 N         140.7728  141.9915  167.6804 N.am    1  UNL1       -0.2766
      4 H         139.8076  142.1536  167.7869 H       1  UNL1        0.1553
      5 C         140.5679  144.2353  163.0196 C.ar    1  UNL1        0.0845
      6 C         139.2488  144.8636  163.3586 C.ar    1  UNL1        0.0193
      7 C         138.6783  144.7121  164.7376 C.ar    1  UNL1        0.0032
      8 C         139.4269  143.9323  165.7775 C.ar    1  UNL1        0.0238
      9 C         140.7461  143.3040  165.4385 C.ar    1  UNL1        0.1347
     10 N         141.3166  143.4554  164.0595 N.ar    1  UNL1       -0.2407
     11 C         141.2658  145.7628  158.0135 C.3     1  UNL1        0.1538
     12 N         141.4592  145.0889  159.3396 N.ar    1  UNL1       -0.2473
     13 C         140.5723  145.2347  160.5404 C.ar    1  UNL1        0.0982
     14 C         141.1385  144.3867  161.6406 C.ar    1  UNL1        0.0573
     15 C         142.3754  143.7168  161.1197 C.ar    1  UNL1        0.1231
     16 N         142.5736  144.1508  159.6976 N.ar    1  UNL1       -0.1675
     17 C         141.5215  141.2116  168.7204 C.ar    1  UNL1        0.0937
     18 C         141.7728  139.7330  168.7024 C.ar    1  UNL1        0.1115
     19 N         142.5569  139.3810  169.9317 N.ar    1  UNL1       -0.2459
     20 C         143.0254  138.0089  170.3159 C.3     1  UNL1        0.1538
     21 N         142.7902  140.6422  170.7095 N.ar    1  UNL1       -0.1632
     22 C         142.1503  141.7737  169.9609 C.ar    1  UNL1        0.1686
     23 C         142.1408  143.2140  170.3793 C.2     1  UNL1        0.2635
     24 N         143.3273  143.7971  171.0880 N.am    1  UNL1       -0.3240
     25 O         140.9448  144.0716  170.0888 O.2     1  UNL1       -0.2686
     26 H         144.1123  143.2343  171.2787 H       1  UNL1        0.1453
     27 H         143.3210  144.7425  171.3626 H       1  UNL1        0.1453
@<TRIPOS>BOND
     1    11    12    1
     2    12    13   ar
     3    13    14   ar
     4    14     5    1
     5     5     6   ar
     6     6     7   ar
     7     7     8   ar
     8     8     9   ar
     9     9     1    1
    10     1     2    2
    11     1     3   am
    12     3    17    1
    13    17    18   ar
    14    18    19   ar
    15    19    20    1
    16    19    21   ar
    17    21    22   ar
    18    22    23    1
    19    23    24   am
    20    23    25    2
    21     9    10   ar
    22    14    15   ar
    23    15    16   ar
    24    16    12   ar
    25    10     5   ar
    26    22    17   ar
    27     3     4    1
    28    24    26    1
    29    24    27    1
@<TRIPOS>MOLECULE
*****
 27 29 0 0 0
SMALL
GASTEIGER

@<TRIPOS>ATOM
      1 C         138.6068  141.7516  163.7374 C.2     1  UNL1        0.2673
      2 O         137.3193  142.4791  163.4865 O.2     1  UNL1       -0.2682
      3 N         139.6280  141.6358  162.6448 N.am    1  UNL1       -0.2766
      4 H         140.4731  141.1583  162.8094 H       1  UNL1        0.1553
      5 C         140.0466  141.2212  167.3973 C.ar    1  UNL1        0.0845
      6 C         139.4059  139.9165  167.7677 C.ar    1  UNL1        0.0193
      7 C         138.4988  139.2235  166.7947 C.ar    1  UNL1        0.0032
      8 C         138.2324  139.8352  165.4512 C.ar    1  UNL1        0.0238
      9 C         138.8732  141.1399  165.0808 C.ar    1  UNL1        0.1347
     10 N         139.7803  141.8329  166.0539 N.ar    1  UNL1       -0.2407
     11 C         144.3548  142.7053  170.0654 C.3     1  UNL1        0.1538
     12 N         142.9341  142.5963  169.5968 N.ar    1  UNL1       -0.2473
     13 C         142.4324  141.6998  168.5039 C.ar    1  UNL1        0.0982
     14 C         140.9538  141.9142  168.3704 C.ar    1  UNL1        0.0573
     15 C         140.5416  142.9433  169.3809 C.ar    1  UNL1        0.1231
     16 N         141.7655  143.3649  170.1388 N.ar    1  UNL1       -0.1675
     17 C         139.3616  142.2475  161.3013 C.ar    1  UNL1        0.0937
     18 C         138.5305  141.6452  160.2075 C.ar    1  UNL1        0.1115
     19 N         138.5348  142.5943  159.0459 N.ar    1  UNL1       -0.2459
     20 C         137.8293  142.3905  157.7381 C.3     1  UNL1        0.1538
     21 N         139.3687  143.7832  159.4219 N.ar    1  UNL1       -0.1632
     22 C         139.8797  143.5689  160.8158 C.ar    1  UNL1        0.1686
     23 C         140.7550  144.5105  161.5885 C.2     1  UNL1        0.2635
     24 N         141.7228  145.3993  160.8652 N.am    1  UNL1       -0.3240
     25 O         140.6625  144.5634  163.0848 O.2     1  UNL1       -0.2686
     26 H         141.7836  145.3646  159.8831 H       1  UNL1        0.1453
     27 H         142.2973  146.0173  161.3724 H       1  UNL1        0.1453
@<TRIPOS>BOND
     1    11    12    1
     2    12    13   ar
     3    13    14   ar
     4    14     5    1
     5     5     6   ar
     6     6     7   ar
     7     7     8   ar
     8     8     9   ar
     9     9     1    1
    10     1     2    2
    11     1     3   am
    12     3    17    1
    13    17    18   ar
    14    18    19   ar
    15    19    20    1
    16    19    21   ar
    17    21    22   ar
    18    22    23    1
    19    23    24   am
    20    23    25    2
    21     9    10   ar
    22    14    15   ar
    23    15    16   ar
    24    16    12   ar
    25    10     5   ar
    26    22    17   ar
    27     3     4    1
    28    24    26    1
    29    24    27    1
@<TRIPOS>MOLECULE
*****
 27 29 0 0 0
SMALL
GASTEIGER

@<TRIPOS>ATOM
      1 C         141.2676  142.5369  166.4614 C.2     1  UNL1        0.2673
      2 O         139.9446  143.2363  166.3585 O.2     1  UNL1       -0.2682
      3 N         141.5424  141.6177  167.6144 N.am    1  UNL1       -0.2766
      4 H         142.4107  141.1587  167.6819 H       1  UNL1        0.1553
      5 C         142.9612  143.3600  162.9679 C.ar    1  UNL1        0.0845
      6 C         144.4123  143.1966  163.3108 C.ar    1  UNL1        0.0193
      7 C         144.8151  142.8132  164.7039 C.ar    1  UNL1        0.0032
      8 C         143.7669  142.5934  165.7541 C.ar    1  UNL1        0.0238
      9 C         142.3158  142.7568  165.4112 C.ar    1  UNL1        0.1347
     10 N         141.9130  143.1401  164.0181 N.ar    1  UNL1       -0.2407
     11 C         140.4106  145.5686  158.9061 C.3     1  UNL1        0.1538
     12 N         141.3859  144.7586  159.7078 N.ar    1  UNL1       -0.2473
     13 C         141.4278  144.6568  161.2037 C.ar    1  UNL1        0.0982
     14 C         142.5583  143.7434  161.5748 C.ar    1  UNL1        0.0573
     15 C         143.2151  143.2806  160.3081 C.ar    1  UNL1        0.1231
     16 N         142.4906  143.9080  159.1543 N.ar    1  UNL1       -0.1675
     17 C         140.4942  141.3978  168.6646 C.ar    1  UNL1        0.0937
     18 C         139.5527  140.2326  168.7402 C.ar    1  UNL1        0.1115
     19 N         138.6800  140.4191  169.9459 N.ar    1  UNL1       -0.2459
     20 C         137.5957  139.4886  170.4020 C.3     1  UNL1        0.1538
     21 N         139.0822  141.6998  170.6154 N.ar    1  UNL1       -0.1632
     22 C         140.2034  142.3047  169.8236 C.ar    1  UNL1        0.1686
     23 C         140.9097  143.5905  170.1358 C.2     1  UNL1        0.2635
     24 N         142.3900  143.5935  170.3781 N.am    1  UNL1       -0.3240
     25 O         140.1358  144.8736  170.2057 O.2     1  UNL1       -0.2686
     26 H         142.8980  142.7515  170.3322 H       1  UNL1        0.1453
     27 H         142.8536  144.4376  170.5830 H       1  UNL1        0.1453
@<TRIPOS>BOND
     1    11    12    1
     2    12    13   ar
     3    13    14   ar
     4    14     5    1
     5     5     6   ar
     6     6     7   ar
     7     7     8   ar
     8     8     9   ar
     9     9     1    1
    10     1     2    2
    11     1     3   am
    12     3    17    1
    13    17    18   ar
    14    18    19   ar
    15    19    20    1
    16    19    21   ar
    17    21    22   ar
    18    22    23    1
    19    23    24   am
    20    23    25    2
    21     9    10   ar
    22    14    15   ar
    23    15    16   ar
    24    16    12   ar
    25    10     5   ar
    26    22    17   ar
    27     3     4    1
    28    24    26    1
    29    24    27    1
@<TRIPOS>MOLECULE
*****
 27 29 0 0 0
SMALL
GASTEIGER

@<TRIPOS>ATOM
      1 C         140.9094  138.3540  163.8291 C.2     1  UNL1        0.2673
      2 O         141.1941  136.9239  163.4774 O.2     1  UNL1       -0.2682
      3 N         141.4133  139.4577  162.9472 N.am    1  UNL1       -0.2766
      4 H         141.2265  140.3964  163.1780 H       1  UNL1        0.1553
      5 C         139.9315  139.8764  167.3612 C.ar    1  UNL1        0.0845
      6 C         138.5436  139.3330  167.5297 C.ar    1  UNL1        0.0193
      7 C         137.9443  138.4633  166.4646 C.ar    1  UNL1        0.0032
      8 C         138.7329  138.1370  165.2311 C.ar    1  UNL1        0.0238
      9 C         140.1208  138.6803  165.0626 C.ar    1  UNL1        0.1347
     10 N         140.7201  139.5500  166.1277 N.ar    1  UNL1       -0.2407
     11 C         143.3669  142.7681  170.1391 C.3     1  UNL1        0.1538
     12 N         142.1100  142.0753  169.7031 N.ar    1  UNL1       -0.2473
     13 C         141.9458  141.2425  168.4664 C.ar    1  UNL1        0.0982
     14 C         140.5309  140.7461  168.4263 C.ar    1  UNL1        0.0573
     15 C         139.8206  141.2722  169.6382 C.ar    1  UNL1        0.1231
     16 N         140.7965  142.0936  170.4273 N.ar    1  UNL1       -0.1675
     17 C         142.2019  139.1314  161.7137 C.ar    1  UNL1        0.0937
     18 C         141.6661  138.4879  160.4692 C.ar    1  UNL1        0.1115
     19 N         142.7978  138.3500  159.4944 N.ar    1  UNL1       -0.2459
     20 C         142.7097  137.7579  158.1191 C.3     1  UNL1        0.1538
     21 N         144.0331  138.9084  160.1365 N.ar    1  UNL1       -0.1632
     22 C         143.6649  139.3913  161.5081 C.ar    1  UNL1        0.1686
     23 C         144.5960  140.0232  162.4998 C.2     1  UNL1        0.2635
     24 N         144.9150  139.3174  163.7844 N.am    1  UNL1       -0.3240
     25 O         145.2083  141.3609  162.2070 O.2     1  UNL1       -0.2686
     26 H         144.5132  138.4394  163.9766 H       1  UNL1        0.1453
     27 H         145.5262  139.7322  164.4353 H       1  UNL1        0.1453
@<TRIPOS>BOND
     1    11    12    1
     2    12    13   ar
     3    13    14   ar
     4    14     5    1
     5     5     6   ar
     6     6     7   ar
     7     7     8   ar
     8     8     9   ar
     9     9     1    1
    10     1     2    2
    11     1     3   am
    12     3    17    1
    13    17    18   ar
    14    18    19   ar
    15    19    20    1
    16    19    21   ar
    17    21    22   ar
    18    22    23    1
    19    23    24   am
    20    23    25    2
    21     9    10   ar
    22    14    15   ar
    23    15    16   ar
    24    16    12   ar
    25    10     5   ar
    26    22    17   ar
    27     3     4    1
    28    24    26    1
    29    24    27    1
@<TRIPOS>MOLECULE
*****
 27 29 0 0 0
SMALL
GASTEIGER

@<TRIPOS>ATOM
      1 C         138.8079  141.8985  161.0528 C.2     1  UNL1        0.2673
      2 O         137.7221  142.9221  161.2050 O.2     1  UNL1       -0.2682
      3 N         139.9401  142.1422  160.0995 N.am    1  UNL1       -0.2766
      4 H         140.6527  141.4704  159.9996 H       1  UNL1        0.1553
      5 C         138.7409  139.4223  164.1534 C.ar    1  UNL1        0.0845
      6 C         138.6687  138.0964  163.4558 C.ar    1  UNL1        0.0193
      7 C         138.6430  138.0378  161.9572 C.ar    1  UNL1        0.0032
      8 C         138.6894  139.3052  161.1562 C.ar    1  UNL1        0.0238
      9 C         138.7615  140.6311  161.8538 C.ar    1  UNL1        0.1347
     10 N         138.7872  140.6897  163.3524 N.ar    1  UNL1       -0.2407
     11 C         140.0464  140.7010  169.1073 C.3     1  UNL1        0.1538
     12 N         139.3668  140.0687  167.9291 N.ar    1  UNL1       -0.2473
     13 C         139.6886  140.3204  166.4859 C.ar    1  UNL1        0.0982
     14 C         138.7666  139.4809  165.6521 C.ar    1  UNL1        0.0573
     15 C         137.8749  138.7103  166.5800 C.ar    1  UNL1        0.1231
     16 N         138.2458  139.0736  167.9873 N.ar    1  UNL1       -0.1675
     17 C         139.9865  143.4096  159.2985 C.ar    1  UNL1        0.0937
     18 C         139.6025  143.5554  157.8558 C.ar    1  UNL1        0.1115
     19 N         139.8037  144.9896  157.4652 N.ar    1  UNL1       -0.2459
     20 C         139.5425  145.5796  156.1112 C.3     1  UNL1        0.1538
     21 N         140.3120  145.7302  158.6665 N.ar    1  UNL1       -0.1632
     22 C         140.4250  144.7538  159.7996 C.ar    1  UNL1        0.1686
     23 C         140.8940  145.0665  161.1895 C.2     1  UNL1        0.2635
     24 N         142.3368  144.8789  161.5543 N.am    1  UNL1       -0.3240
     25 O         139.9202  145.5670  162.2150 O.2     1  UNL1       -0.2686
     26 H         142.9760  144.5504  160.8814 H       1  UNL1        0.1453
     27 H         142.6446  145.0842  162.4666 H       1  UNL1        0.1453
@<TRIPOS>BOND
     1    11    12    1
     2    12    13   ar
     3    13    14   ar
     4    14     5    1
     5     5     6   ar
     6     6     7   ar
     7     7     8   ar
     8     8     9   ar
     9     9     1    1
    10     1     2    2
    11     1     3   am
    12     3    17    1
    13    17    18   ar
    14    18    19   ar
    15    19    20    1
    16    19    21   ar
    17    21    22   ar
    18    22    23    1
    19    23    24   am
    20    23    25    2
    21     9    10   ar
    22    14    15   ar
    23    15    16   ar
    24    16    12   ar
    25    10     5   ar
    26    22    17   ar
    27     3     4    1
    28    24    26    1
    29    24    27    1
@<TRIPOS>MOLECULE
*****
 27 29 0 0 0
SMALL
GASTEIGER

@<TRIPOS>ATOM
      1 C         140.0454  141.3558  163.3237 C.2     1  UNL1        0.2673
      2 O         140.4116  140.5313  162.1254 O.2     1  UNL1       -0.2682
      3 N         140.1279  142.8521  163.2581 N.am    1  UNL1       -0.2766
      4 H         139.8876  143.3933  164.0446 H       1  UNL1        0.1553
      5 C         139.6399  140.5074  167.1793 C.ar    1  UNL1        0.0845
      6 C         138.6994  139.3406  167.1154 C.ar    1  UNL1        0.0193
      7 C         138.2076  138.8456  165.7877 C.ar    1  UNL1        0.0032
      8 C         138.6562  139.5173  164.5238 C.ar    1  UNL1        0.0238
      9 C         139.5967  140.6841  164.5876 C.ar    1  UNL1        0.1347
     10 N         140.0885  141.1791  165.9154 N.ar    1  UNL1       -0.2407
     11 C         142.5213  142.9303  170.8817 C.3     1  UNL1        0.1538
     12 N         141.4562  142.1162  170.2089 N.ar    1  UNL1       -0.2473
     13 C         141.3392  141.8628  168.7351 C.ar    1  UNL1        0.0982
     14 C         140.1317  141.0025  168.5071 C.ar    1  UNL1        0.0573
     15 C         139.5025  140.7242  169.8400 C.ar    1  UNL1        0.1231
     16 N         140.3211  141.4125  170.8918 N.ar    1  UNL1       -0.1675
     17 C         140.5766  143.5238  161.9942 C.ar    1  UNL1        0.0937
     18 C         139.7515  143.7142  160.7561 C.ar    1  UNL1        0.1115
     19 N         140.5941  144.4312  159.7432 N.ar    1  UNL1       -0.2459
     20 C         140.1660  144.8261  158.3609 C.3     1  UNL1        0.1538
     21 N         141.9400  144.6839  160.3553 N.ar    1  UNL1       -0.1632
     22 C         141.9293  144.1231  161.7465 C.ar    1  UNL1        0.1686
     23 C         143.0706  144.1558  162.7191 C.2     1  UNL1        0.2635
     24 N         143.9961  145.3359  162.7502 N.am    1  UNL1       -0.3240
     25 O         143.2866  143.0084  163.6610 O.2     1  UNL1       -0.2686
     26 H         143.8544  146.0889  162.1321 H       1  UNL1        0.1453
     27 H         144.7452  145.3573  163.3886 H       1  UNL1        0.1453
@<TRIPOS>BOND
     1    11    12    1
     2    12    13   ar
     3    13    14   ar
     4    14     5    1
     5     5     6   ar
     6     6     7   ar
     7     7     8   ar
     8     8     9   ar
     9     9     1    1
    10     1     2    2
    11     1     3   am
    12     3    17    1
    13    17    18   ar
    14    18    19   ar
    15    19    20    1
    16    19    21   ar
    17    21    22   ar
    18    22    23    1
    19    23    24   am
    20    23    25    2
    21     9    10   ar
    22    14    15   ar
    23    15    16   ar
    24    16    12   ar
    25    10     5   ar
    26    22    17   ar
    27     3     4    1
    28    24    26    1
    29    24    27    1
@<TRIPOS>MOLECULE
*****
 27 29 0 0 0
SMALL
GASTEIGER

@<TRIPOS>ATOM
      1 C         140.8098  142.0780  163.3048 C.2     1  UNL1        0.2673
      2 O         142.1128  142.7299  163.6614 O.2     1  UNL1       -0.2682
      3 N         140.2280  142.2648  161.9349 N.am    1  UNL1       -0.2766
      4 H         139.3728  141.8369  161.7008 H       1  UNL1        0.1553
      5 C         139.6547  140.5779  166.7927 C.ar    1  UNL1        0.0845
      6 C         138.6465  139.5618  166.3443 C.ar    1  UNL1        0.0193
      7 C         138.3594  139.3844  164.8828 C.ar    1  UNL1        0.0032
      8 C         139.0805  140.2231  163.8696 C.ar    1  UNL1        0.0238
      9 C         140.0887  141.2393  164.3180 C.ar    1  UNL1        0.1347
     10 N         140.3758  141.4167  165.7795 N.ar    1  UNL1       -0.2407
     11 C         141.9856  141.9794  171.3186 C.3     1  UNL1        0.1538
     12 N         141.0133  141.3996  170.3346 N.ar    1  UNL1       -0.2473
     13 C         141.1292  141.4602  168.8403 C.ar    1  UNL1        0.0982
     14 C         139.9418  140.7554  168.2542 C.ar    1  UNL1        0.0573
     15 C         139.0920  140.2592  169.3863 C.ar    1  UNL1        0.1231
     16 N         139.7542  140.6573  170.6720 N.ar    1  UNL1       -0.1675
     17 C         140.9491  143.1035  160.9217 C.ar    1  UNL1        0.0937
     18 C         141.6844  142.5938  159.7178 C.ar    1  UNL1        0.1115
     19 N         142.2512  143.7744  158.9865 N.ar    1  UNL1       -0.2459
     20 C         143.0609  143.7245  157.7249 C.3     1  UNL1        0.1538
     21 N         141.8662  145.0139  159.7386 N.ar    1  UNL1       -0.1632
     22 C         141.0615  144.5993  160.9346 C.ar    1  UNL1        0.1686
     23 C         140.4725  145.5188  161.9629 C.2     1  UNL1        0.2635
     24 N         141.2539  145.8640  163.1959 N.am    1  UNL1       -0.3240
     25 O         139.1020  146.0934  161.7582 O.2     1  UNL1       -0.2686
     26 H         142.1534  145.4870  163.3302 H       1  UNL1        0.1453
     27 H         140.8673  146.4676  163.8707 H       1  UNL1        0.1453
@<TRIPOS>BOND
     1    11    12    1
     2    12    13   ar
     3    13    14   ar
     4    14     5    1
     5     5     6   ar
     6     6     7   ar
     7     7     8   ar
     8     8     9   ar
     9     9     1    1
    10     1     2    2
    11     1     3   am
    12     3    17    1
    13    17    18   ar
    14    18    19   ar
    15    19    20    1
    16    19    21   ar
    17    21    22   ar
    18    22    23    1
    19    23    24   am
    20    23    25    2
    21     9    10   ar
    22    14    15   ar
    23    15    16   ar
    24    16    12   ar
    25    10     5   ar
    26    22    17   ar
    27     3     4    1
    28    24    26    1
    29    24    27    1
@<TRIPOS>MOLECULE
*****
 27 29 0 0 0
SMALL
GASTEIGER

@<TRIPOS>ATOM
      1 C         141.6967  139.2972  166.0634 C.2     1  UNL1        0.2673
      2 O         142.9158  138.5990  166.5890 O.2     1  UNL1       -0.2682
      3 N         141.1391  140.4836  166.7925 N.am    1  UNL1       -0.2766
      4 H         140.3390  140.9418  166.4475 H       1  UNL1        0.1553
      5 C         141.0852  138.4335  162.2385 C.ar    1  UNL1        0.0845
      6 C         139.7122  137.8326  162.2995 C.ar    1  UNL1        0.0193
      7 C         139.0007  137.7199  163.6152 C.ar    1  UNL1        0.0032
      8 C         139.6622  138.2081  164.8698 C.ar    1  UNL1        0.0238
      9 C         141.0352  138.8090  164.8088 C.ar    1  UNL1        0.1347
     10 N         141.7467  138.9217  163.4931 N.ar    1  UNL1       -0.2407
     11 C         142.0362  138.7379  157.0535 C.3     1  UNL1        0.1538
     12 N         142.2339  138.6861  158.5395 N.ar    1  UNL1       -0.2473
     13 C         141.1506  138.5582  159.5691 C.ar    1  UNL1        0.0982
     14 C         141.7968  138.5462  160.9228 C.ar    1  UNL1        0.0573
     15 C         143.2794  138.6668  160.7297 C.ar    1  UNL1        0.1231
     16 N         143.5496  138.7533  159.2568 N.ar    1  UNL1       -0.1675
     17 C         141.8006  140.9718  168.0471 C.ar    1  UNL1        0.0937
     18 C         143.0700  141.7675  168.1224 C.ar    1  UNL1        0.1115
     19 N         143.3628  142.0375  169.5685 N.ar    1  UNL1       -0.2459
     20 C         144.5376  142.8020  170.1025 C.3     1  UNL1        0.1538
     21 N         142.2744  141.4086  170.3871 N.ar    1  UNL1       -0.1632
     22 C         141.3089  140.7499  169.4468 C.ar    1  UNL1        0.1686
     23 C         140.0695  140.0010  169.8376 C.2     1  UNL1        0.2635
     24 N         139.8771  139.5580  171.2577 N.am    1  UNL1       -0.3240
     25 O         139.0221  139.6950  168.8081 O.2     1  UNL1       -0.2686
     26 H         140.5644  139.7588  171.9333 H       1  UNL1        0.1453
     27 H         139.0636  139.0664  171.5141 H       1  UNL1        0.1453
@<TRIPOS>BOND
     1    11    12    1
     2    12    13   ar
     3    13    14   ar
     4    14     5    1
     5     5     6   ar
     6     6     7   ar
     7     7     8   ar
     8     8     9   ar
     9     9     1    1
    10     1     2    2
    11     1     3   am
    12     3    17    1
    13    17    18   ar
    14    18    19   ar
    15    19    20    1
    16    19    21   ar
    17    21    22   ar
    18    22    23    1
    19    23    24   am
    20    23    25    2
    21     9    10   ar
    22    14    15   ar
    23    15    16   ar
    24    16    12   ar
    25    10     5   ar
    26    22    17   ar
    27     3     4    1
    28    24    26    1
    29    24    27    1
@<TRIPOS>MOLECULE
*****
 27 29 0 0 0
SMALL
GASTEIGER

@<TRIPOS>ATOM
      1 C         143.2016  143.0411  162.1479 C.2     1  UNL1        0.2673
      2 O         143.9549  144.3376  162.1882 O.2     1  UNL1       -0.2682
      3 N         142.1407  142.8221  161.1104 N.am    1  UNL1       -0.2766
      4 H         141.6463  141.9712  161.0839 H       1  UNL1        0.1553
      5 C         143.2769  140.9801  165.5386 C.ar    1  UNL1        0.0845
      6 C         144.1245  139.8087  165.1395 C.ar    1  UNL1        0.0193
      7 C         144.6644  139.7147  163.7433 C.ar    1  UNL1        0.0032
      8 C         144.3568  140.7922  162.7461 C.ar    1  UNL1        0.0238
      9 C         143.5092  141.9636  163.1451 C.ar    1  UNL1        0.1347
     10 N         142.9693  142.0576  164.5414 N.ar    1  UNL1       -0.2407
     11 C         140.7302  139.8522  170.0245 C.3     1  UNL1        0.1538
     12 N         141.5663  140.5557  168.9968 N.ar    1  UNL1       -0.2473
     13 C         141.8700  140.0565  167.6153 C.ar    1  UNL1        0.0982
     14 C         142.7369  141.0741  166.9349 C.ar    1  UNL1        0.0573
     15 C         142.9689  142.2022  167.8959 C.ar    1  UNL1        0.1231
     16 N         142.2455  141.8819  169.1702 N.ar    1  UNL1       -0.1675
     17 C         141.8331  143.8996  160.1132 C.ar    1  UNL1        0.0937
     18 C         142.2981  143.9405  158.6877 C.ar    1  UNL1        0.1115
     19 N         141.7589  145.1915  158.0599 N.ar    1  UNL1       -0.2459
     20 C         141.9792  145.6328  156.6434 C.3     1  UNL1        0.1538
     21 N         140.9605  145.9238  159.0974 N.ar    1  UNL1       -0.1632
     22 C         141.0063  145.1254  160.3664 C.ar    1  UNL1        0.1686
     23 C         140.3421  145.4888  161.6612 C.2     1  UNL1        0.2635
     24 N         141.1729  145.8942  162.8425 N.am    1  UNL1       -0.3240
     25 O         138.8469  145.4469  161.7749 O.2     1  UNL1       -0.2686
     26 H         142.1542  145.9218  162.7680 H       1  UNL1        0.1453
     27 H         140.7368  146.1328  163.6923 H       1  UNL1        0.1453
@<TRIPOS>BOND
     1    11    12    1
     2    12    13   ar
     3    13    14   ar
     4    14     5    1
     5     5     6   ar
     6     6     7   ar
     7     7     8   ar
     8     8     9   ar
     9     9     1    1
    10     1     2    2
    11     1     3   am
    12     3    17    1
    13    17    18   ar
    14    18    19   ar
    15    19    20    1
    16    19    21   ar
    17    21    22   ar
    18    22    23    1
    19    23    24   am
    20    23    25    2
    21     9    10   ar
    22    14    15   ar
    23    15    16   ar
    24    16    12   ar
    25    10     5   ar
    26    22    17   ar
    27     3     4    1
    28    24    26    1
    29    24    27    1
