@<TRIPOS>MOLECULE
*****
 36 39 0 0 0
SMALL
GASTEIGER

@<TRIPOS>ATOM
      1 C         140.9755  140.1296  165.1313 C.2     1  UNL1       -0.0040
      2 C         142.3349  140.0904  165.7642 C.2     1  UNL1       -0.0221
      3 C         139.8278  139.4092  165.7745 C.ar    1  UNL1       -0.0001
      4 C         139.3390  138.1129  165.1994 C.ar    1  UNL1        0.0031
      5 C         138.1913  137.3925  165.8426 C.ar    1  UNL1        0.0366
      6 C         137.5323  137.9684  167.0609 C.ar    1  UNL1        0.1337
      7 O         136.3845  137.2479  167.7041 O.3     1  UNL1       -0.5055
      8 C         138.0211  139.2646  167.6360 C.ar    1  UNL1        0.0366
      9 C         139.1689  139.9851  166.9928 C.ar    1  UNL1        0.0031
     10 H         136.0792  136.4382  167.3448 H       1  UNL1        0.2922
     11 C         140.3405  142.4085  161.3033 C.ar    1  UNL1       -0.0042
     12 C         140.0760  143.0706  162.6230 C.ar    1  UNL1       -0.0003
     13 C         140.2877  142.3110  163.8990 C.ar    1  UNL1       -0.0000
     14 C         140.7639  140.8892  163.8553 C.ar    1  UNL1       -0.0003
     15 C         141.0284  140.2271  162.5356 C.ar    1  UNL1       -0.0000
     16 C         140.8167  140.9868  161.2596 C.ar    1  UNL1       -0.0003
     17 N         139.7056  144.6873  157.4753 N.3     1  UNL1       -0.2700
     18 C         139.1809  143.2887  157.6114 C.3     1  UNL1        0.0985
     19 C         139.3925  142.5291  158.8874 C.2     1  UNL1       -0.0130
     20 C         140.1289  143.1681  160.0273 C.2     1  UNL1       -0.0237
     21 C         140.6536  144.5667  159.8912 C.3     1  UNL1        0.0434
     22 C         140.4419  145.3263  158.6152 C.3     1  UNL1        0.0770
     23 C         138.2840  145.1739  155.3558 C.3     1  UNL1        0.0173
     24 C         139.4939  145.4470  156.1993 C.3     1  UNL1        0.0579
     25 C         140.4921  146.4796  155.7669 C.3     1  UNL1        0.0173
     26 C         143.4827  140.8108  165.1210 C.ar    1  UNL1       -0.0040
     27 C         143.7064  142.2671  165.4022 C.ar    1  UNL1       -0.0003
     28 C         144.8542  142.9875  164.7590 C.ar    1  UNL1       -0.0000
     29 C         145.7783  142.2516  163.8346 C.ar    1  UNL1       -0.0000
     30 C         145.5545  140.7952  163.5534 C.ar    1  UNL1       -0.0000
     31 C         144.4068  140.0749  164.1966 C.ar    1  UNL1       -0.0003
     32 C         142.5466  139.3308  167.0402 C.3     1  UNL1        0.0289
     33 C         142.6491  140.0670  168.3431 C.3     1  UNL1        0.0364
     34 C         142.1269  139.4401  169.6018 C.3     1  UNL1        0.1375
     35 O         142.9551  138.4264  170.3343 O.3     1  UNL1       -0.3820
     36 H         143.0534  137.6322  169.7861 H       1  UNL1        0.2104
@<TRIPOS>BOND
     1    23    24    1
     2    24    25    1
     3    24    17    1
     4    17    18    1
     5    18    19    1
     6    19    20    2
     7    20    11    1
     8    11    12   ar
     9    12    13   ar
    10    13    14   ar
    11    14     1    1
    12     1     2    2
    13     2    32    1
    14    32    33    1
    15    33    34    1
    16    34    35    1
    17     2    26    1
    18    26    27   ar
    19    27    28   ar
    20    28    29   ar
    21    29    30   ar
    22    30    31   ar
    23     1     3    1
    24     3     4   ar
    25     4     5   ar
    26     5     6   ar
    27     6     7    1
    28     6     8   ar
    29     8     9   ar
    30    14    15   ar
    31    15    16   ar
    32    20    21    1
    33    21    22    1
    34    22    17    1
    35    16    11   ar
    36    31    26   ar
    37     9     3   ar
    38    35    36    1
    39     7    10    1
@<TRIPOS>MOLECULE
*****
 36 39 0 0 0
SMALL
GASTEIGER

@<TRIPOS>ATOM
      1 C         141.6172  141.3930  167.3089 C.2     1  UNL1       -0.0040
      2 C         141.1165  139.9952  167.5223 C.2     1  UNL1       -0.0221
      3 C         142.2010  142.1637  168.4556 C.ar    1  UNL1       -0.0001
      4 C         143.6558  142.0206  168.7923 C.ar    1  UNL1        0.0031
      5 C         144.2396  142.7914  169.9391 C.ar    1  UNL1        0.0366
      6 C         143.3687  143.7053  170.7492 C.ar    1  UNL1        0.1337
      7 O         143.9525  144.4761  171.8960 O.3     1  UNL1       -0.5055
      8 C         141.9140  143.8484  170.4126 C.ar    1  UNL1        0.0366
      9 C         141.3301  143.0776  169.2658 C.ar    1  UNL1        0.0031
     10 H         144.8612  144.3866  172.1063 H       1  UNL1        0.2922
     11 C         141.3681  143.2738  163.2284 C.ar    1  UNL1       -0.0042
     12 C         142.6474  142.6364  163.6836 C.ar    1  UNL1       -0.0003
     13 C         142.7304  142.0094  165.0438 C.ar    1  UNL1       -0.0000
     14 C         141.5342  142.0199  165.9487 C.ar    1  UNL1       -0.0003
     15 C         140.2550  142.6573  165.4935 C.ar    1  UNL1       -0.0000
     16 C         140.1720  143.2843  164.1334 C.ar    1  UNL1       -0.0003
     17 N         141.1190  145.1547  159.1479 N.3     1  UNL1       -0.2700
     18 C         142.0583  144.0106  159.3903 C.3     1  UNL1        0.0985
     19 C         142.1413  143.3836  160.7505 C.2     1  UNL1       -0.0130
     20 C         141.2851  143.9008  161.8683 C.2     1  UNL1       -0.0237
     21 C         140.3459  145.0449  161.6259 C.3     1  UNL1        0.0434
     22 C         140.2628  145.6719  160.2657 C.3     1  UNL1        0.0770
     23 C         139.7967  146.5198  157.3766 C.3     1  UNL1        0.0173
     24 C         141.0360  145.7817  157.7878 C.3     1  UNL1        0.0579
     25 C         142.1923  145.6704  156.8388 C.3     1  UNL1        0.0173
     26 C         140.5327  139.2244  166.3755 C.ar    1  UNL1       -0.0040
     27 C         141.4347  138.4854  165.4320 C.ar    1  UNL1       -0.0003
     28 C         140.8508  137.7146  164.2852 C.ar    1  UNL1       -0.0000
     29 C         139.3650  137.6828  164.0820 C.ar    1  UNL1       -0.0000
     30 C         138.4630  138.4218  165.0256 C.ar    1  UNL1       -0.0000
     31 C         139.0468  139.1926  166.1723 C.ar    1  UNL1       -0.0003
     32 C         141.1995  139.3683  168.8825 C.3     1  UNL1        0.0289
     33 C         140.3422  139.8846  169.9999 C.3     1  UNL1        0.0364
     34 C         138.9219  140.2854  169.7318 C.3     1  UNL1        0.1375
     35 O         137.8146  139.7374  170.5823 O.3     1  UNL1       -0.3820
     36 H         137.7424  138.7803  170.4419 H       1  UNL1        0.2104
@<TRIPOS>BOND
     1    23    24    1
     2    24    25    1
     3    24    17    1
     4    17    18    1
     5    18    19    1
     6    19    20    2
     7    20    11    1
     8    11    12   ar
     9    12    13   ar
    10    13    14   ar
    11    14     1    1
    12     1     2    2
    13     2    32    1
    14    32    33    1
    15    33    34    1
    16    34    35    1
    17     2    26    1
    18    26    27   ar
    19    27    28   ar
    20    28    29   ar
    21    29    30   ar
    22    30    31   ar
    23     1     3    1
    24     3     4   ar
    25     4     5   ar
    26     5     6   ar
    27     6     7    1
    28     6     8   ar
    29     8     9   ar
    30    14    15   ar
    31    15    16   ar
    32    20    21    1
    33    21    22    1
    34    22    17    1
    35    16    11   ar
    36    31    26   ar
    37     9     3   ar
    38    35    36    1
    39     7    10    1
@<TRIPOS>MOLECULE
*****
 36 39 0 0 0
SMALL
GASTEIGER

@<TRIPOS>ATOM
      1 C         141.6003  141.4171  167.2995 C.2     1  UNL1       -0.0040
      2 C         141.0681  140.0332  167.5265 C.2     1  UNL1       -0.0221
      3 C         142.2081  142.1828  168.4371 C.ar    1  UNL1       -0.0001
      4 C         141.3549  143.0949  169.2680 C.ar    1  UNL1        0.0031
      5 C         141.9628  143.8606  170.4056 C.ar    1  UNL1        0.0366
      6 C         143.4238  143.7143  170.7123 C.ar    1  UNL1        0.1337
      7 O         144.0317  144.4801  171.8500 O.3     1  UNL1       -0.5055
      8 C         144.2770  142.8024  169.8814 C.ar    1  UNL1        0.0366
      9 C         143.6691  142.0366  168.7438 C.ar    1  UNL1        0.0031
     10 H         143.4987  145.0498  172.3690 H       1  UNL1        0.2922
     11 C         141.3732  143.2716  163.2057 C.ar    1  UNL1       -0.0042
     12 C         142.5965  142.5067  163.6157 C.ar    1  UNL1       -0.0003
     13 C         142.6722  141.8885  164.9803 C.ar    1  UNL1       -0.0000
     14 C         141.5246  142.0353  165.9349 C.ar    1  UNL1       -0.0003
     15 C         140.3012  142.8002  165.5249 C.ar    1  UNL1       -0.0000
     16 C         140.2255  143.4184  164.1603 C.ar    1  UNL1       -0.0003
     17 N         141.1461  145.1262  159.1119 N.3     1  UNL1       -0.2700
     18 C         140.2296  145.5987  160.2012 C.3     1  UNL1        0.0985
     19 C         140.3053  144.9805  161.5658 C.2     1  UNL1       -0.0130
     20 C         141.2975  143.8898  161.8411 C.2     1  UNL1       -0.0237
     21 C         142.2140  143.4173  160.7518 C.3     1  UNL1        0.0434
     22 C         142.1383  144.0354  159.3872 C.3     1  UNL1        0.0770
     23 C         139.8404  146.4953  157.3313 C.3     1  UNL1        0.0173
     24 C         141.0704  145.7443  157.7473 C.3     1  UNL1        0.0579
     25 C         142.2247  145.6116  156.7987 C.3     1  UNL1        0.0173
     26 C         140.4602  139.2674  166.3889 C.ar    1  UNL1       -0.0040
     27 C         138.9754  139.2914  166.1773 C.ar    1  UNL1       -0.0003
     28 C         138.3675  138.5256  165.0396 C.ar    1  UNL1       -0.0000
     29 C         139.2445  137.7358  164.1137 C.ar    1  UNL1       -0.0000
     30 C         140.7293  137.7119  164.3254 C.ar    1  UNL1       -0.0000
     31 C         141.3371  138.4777  165.4630 C.ar    1  UNL1       -0.0003
     32 C         141.1438  139.4150  168.8911 C.3     1  UNL1        0.0289
     33 C         140.2957  139.9520  170.0058 C.3     1  UNL1        0.0364
     34 C         138.8682  140.3322  169.7459 C.3     1  UNL1        0.1375
     35 O         137.7641  139.6743  170.5192 O.3     1  UNL1       -0.3820
     36 H         137.7255  138.7325  170.2901 H       1  UNL1        0.2104
@<TRIPOS>BOND
     1    23    24    1
     2    24    25    1
     3    24    17    1
     4    17    18    1
     5    18    19    1
     6    19    20    2
     7    20    11    1
     8    11    12   ar
     9    12    13   ar
    10    13    14   ar
    11    14     1    1
    12     1     2    2
    13     2    32    1
    14    32    33    1
    15    33    34    1
    16    34    35    1
    17     2    26    1
    18    26    27   ar
    19    27    28   ar
    20    28    29   ar
    21    29    30   ar
    22    30    31   ar
    23     1     3    1
    24     3     4   ar
    25     4     5   ar
    26     5     6   ar
    27     6     7    1
    28     6     8   ar
    29     8     9   ar
    30    14    15   ar
    31    15    16   ar
    32    20    21    1
    33    21    22    1
    34    22    17    1
    35    16    11   ar
    36    31    26   ar
    37     9     3   ar
    38    35    36    1
    39     7    10    1
@<TRIPOS>MOLECULE
*****
 36 39 0 0 0
SMALL
GASTEIGER

@<TRIPOS>ATOM
      1 C         140.9487  139.5019  164.9308 C.2     1  UNL1       -0.0040
      2 C         142.0357  140.2407  165.6537 C.2     1  UNL1       -0.0221
      3 C         139.7646  138.9795  165.6890 C.ar    1  UNL1       -0.0001
      4 C         139.1757  137.6462  165.3345 C.ar    1  UNL1        0.0031
      5 C         137.9916  137.1238  166.0927 C.ar    1  UNL1        0.0366
      6 C         137.3963  137.9346  167.2054 C.ar    1  UNL1        0.1337
      7 O         136.2122  137.4121  167.9637 O.3     1  UNL1       -0.5055
      8 C         137.9851  139.2678  167.5600 C.ar    1  UNL1        0.0366
      9 C         139.1693  139.7903  166.8017 C.ar    1  UNL1        0.0031
     10 H         135.8443  136.5793  167.7422 H       1  UNL1        0.2922
     11 C         141.2402  138.8526  160.4874 C.ar    1  UNL1       -0.0042
     12 C         141.8825  137.8798  161.4313 C.ar    1  UNL1       -0.0003
     13 C         141.7853  138.0962  162.9124 C.ar    1  UNL1       -0.0000
     14 C         141.0459  139.2855  163.4497 C.ar    1  UNL1       -0.0003
     15 C         140.4035  140.2583  162.5058 C.ar    1  UNL1       -0.0000
     16 C         140.5007  140.0419  161.0247 C.ar    1  UNL1       -0.0003
     17 N         141.5316  138.2034  156.0440 N.3     1  UNL1       -0.2700
     18 C         142.7763  138.4114  156.8549 C.3     1  UNL1        0.0985
     19 C         142.6792  138.6278  158.3360 C.2     1  UNL1       -0.0130
     20 C         141.3373  138.6362  159.0063 C.2     1  UNL1       -0.0237
     21 C         140.0927  138.4282  158.1955 C.3     1  UNL1        0.0434
     22 C         140.1898  138.2118  156.7144 C.3     1  UNL1        0.0770
     23 C         140.4624  137.4194  153.8098 C.3     1  UNL1        0.0173
     24 C         141.6288  137.9870  154.5629 C.3     1  UNL1        0.0579
     25 C         142.8924  138.3382  153.8349 C.3     1  UNL1        0.0173
     26 C         143.2198  140.7631  164.8955 C.ar    1  UNL1       -0.0040
     27 C         143.2082  142.1636  164.3585 C.ar    1  UNL1       -0.0003
     28 C         144.3924  142.6861  163.6002 C.ar    1  UNL1       -0.0000
     29 C         145.5882  141.8080  163.3791 C.ar    1  UNL1       -0.0000
     30 C         145.5998  140.4074  163.9161 C.ar    1  UNL1       -0.0000
     31 C         144.4157  139.8850  164.6743 C.ar    1  UNL1       -0.0003
     32 C         141.9385  140.4571  167.1348 C.3     1  UNL1        0.0289
     33 C         142.7219  139.5873  168.0728 C.3     1  UNL1        0.0364
     34 C         142.2673  139.4148  169.4919 C.3     1  UNL1        0.1375
     35 O         142.8668  138.3371  170.3457 O.3     1  UNL1       -0.3820
     36 H         142.6214  137.4687  169.9899 H       1  UNL1        0.2104
@<TRIPOS>BOND
     1    23    24    1
     2    24    25    1
     3    24    17    1
     4    17    18    1
     5    18    19    1
     6    19    20    2
     7    20    11    1
     8    11    12   ar
     9    12    13   ar
    10    13    14   ar
    11    14     1    1
    12     1     2    2
    13     2    32    1
    14    32    33    1
    15    33    34    1
    16    34    35    1
    17     2    26    1
    18    26    27   ar
    19    27    28   ar
    20    28    29   ar
    21    29    30   ar
    22    30    31   ar
    23     1     3    1
    24     3     4   ar
    25     4     5   ar
    26     5     6   ar
    27     6     7    1
    28     6     8   ar
    29     8     9   ar
    30    14    15   ar
    31    15    16   ar
    32    20    21    1
    33    21    22    1
    34    22    17    1
    35    16    11   ar
    36    31    26   ar
    37     9     3   ar
    38    35    36    1
    39     7    10    1
@<TRIPOS>MOLECULE
*****
 36 39 0 0 0
SMALL
GASTEIGER

@<TRIPOS>ATOM
      1 C         140.4709  140.8386  164.3773 C.2     1  UNL1       -0.0040
      2 C         141.6294  141.4818  165.0802 C.2     1  UNL1       -0.0221
      3 C         139.6520  139.7967  165.0801 C.ar    1  UNL1       -0.0001
      4 C         138.7833  140.1825  166.2405 C.ar    1  UNL1        0.0031
      5 C         137.9644  139.1407  166.9433 C.ar    1  UNL1        0.0366
      6 C         138.0142  137.7131  166.4858 C.ar    1  UNL1        0.1337
      7 O         137.1952  136.6712  167.1886 O.3     1  UNL1       -0.5055
      8 C         138.8829  137.3273  165.3254 C.ar    1  UNL1        0.0366
      9 C         139.7019  138.3691  164.6226 C.ar    1  UNL1        0.0031
     10 H         136.6525  136.9123  167.9135 H       1  UNL1        0.2922
     11 C         139.4521  142.0343  160.1604 C.ar    1  UNL1       -0.0042
     12 C         140.5182  141.0096  160.4127 C.ar    1  UNL1       -0.0003
     13 C         140.8578  140.6111  161.8183 C.ar    1  UNL1       -0.0000
     14 C         140.1313  141.2371  162.9717 C.ar    1  UNL1       -0.0003
     15 C         139.0653  142.2618  162.7194 C.ar    1  UNL1       -0.0000
     16 C         138.7257  142.6603  161.3138 C.ar    1  UNL1       -0.0003
     17 N         138.4333  143.2300  155.9435 N.3     1  UNL1       -0.2700
     18 C         137.6991  142.0990  156.6006 C.3     1  UNL1        0.0985
     19 C         138.0387  141.7004  158.0062 C.2     1  UNL1       -0.0130
     20 C         139.1125  142.4328  158.7548 C.2     1  UNL1       -0.0237
     21 C         139.8468  143.5638  158.0977 C.3     1  UNL1        0.0434
     22 C         139.5072  143.9623  156.6921 C.3     1  UNL1        0.0770
     23 C         136.9561  144.5714  154.2797 C.3     1  UNL1        0.0173
     24 C         138.0937  143.6285  154.5379 C.3     1  UNL1        0.0579
     25 C         138.8917  143.0842  153.3904 C.3     1  UNL1        0.0173
     26 C         142.4484  142.5237  164.3774 C.ar    1  UNL1       -0.0040
     27 C         141.9973  143.9542  164.3716 C.ar    1  UNL1       -0.0003
     28 C         142.8163  144.9961  163.6688 C.ar    1  UNL1       -0.0000
     29 C         144.0864  144.6074  162.9718 C.ar    1  UNL1       -0.0000
     30 C         144.5375  143.1768  162.9776 C.ar    1  UNL1       -0.0000
     31 C         143.7185  142.1350  163.6804 C.ar    1  UNL1       -0.0003
     32 C         141.9691  141.0833  166.4858 C.3     1  UNL1        0.0289
     33 C         142.1779  142.1357  167.5341 C.3     1  UNL1        0.0364
     34 C         142.9456  141.8103  168.7810 C.3     1  UNL1        0.1375
     35 O         144.0051  142.7495  169.2761 O.3     1  UNL1       -0.3820
     36 H         144.7356  142.7779  168.6385 H       1  UNL1        0.2104
@<TRIPOS>BOND
     1    23    24    1
     2    24    25    1
     3    24    17    1
     4    17    18    1
     5    18    19    1
     6    19    20    2
     7    20    11    1
     8    11    12   ar
     9    12    13   ar
    10    13    14   ar
    11    14     1    1
    12     1     2    2
    13     2    32    1
    14    32    33    1
    15    33    34    1
    16    34    35    1
    17     2    26    1
    18    26    27   ar
    19    27    28   ar
    20    28    29   ar
    21    29    30   ar
    22    30    31   ar
    23     1     3    1
    24     3     4   ar
    25     4     5   ar
    26     5     6   ar
    27     6     7    1
    28     6     8   ar
    29     8     9   ar
    30    14    15   ar
    31    15    16   ar
    32    20    21    1
    33    21    22    1
    34    22    17    1
    35    16    11   ar
    36    31    26   ar
    37     9     3   ar
    38    35    36    1
    39     7    10    1
@<TRIPOS>MOLECULE
*****
 36 39 0 0 0
SMALL
GASTEIGER

@<TRIPOS>ATOM
      1 C         140.4381  141.4851  159.4001 C.2     1  UNL1       -0.0040
      2 C         139.9279  141.4575  160.8104 C.2     1  UNL1       -0.0221
      3 C         140.5764  142.7925  158.6781 C.ar    1  UNL1       -0.0001
      4 C         139.4644  143.2862  157.8008 C.ar    1  UNL1        0.0031
      5 C         139.6027  144.5936  157.0787 C.ar    1  UNL1        0.0366
      6 C         140.8531  145.4075  157.2340 C.ar    1  UNL1        0.1337
      7 O         140.9914  146.7150  156.5119 O.3     1  UNL1       -0.5055
      8 C         141.9651  144.9139  158.1113 C.ar    1  UNL1        0.0366
      9 C         141.8268  143.6064  158.8333 C.ar    1  UNL1        0.0031
     10 H         140.2967  147.0233  155.9639 H       1  UNL1        0.2922
     11 C         141.5538  137.6455  157.3355 C.ar    1  UNL1       -0.0042
     12 C         142.5502  138.3412  158.2147 C.ar    1  UNL1       -0.0003
     13 C         142.1783  139.6211  158.9029 C.ar    1  UNL1       -0.0000
     14 C         140.8100  140.2052  158.7119 C.ar    1  UNL1       -0.0003
     15 C         139.8136  139.5094  157.8327 C.ar    1  UNL1       -0.0000
     16 C         140.1855  138.2296  157.1445 C.ar    1  UNL1       -0.0003
     17 N         142.6695  133.8059  155.2709 N.3     1  UNL1       -0.2700
     18 C         143.5432  134.3528  156.3606 C.3     1  UNL1        0.0985
     19 C         143.1713  135.6326  157.0488 C.2     1  UNL1       -0.0130
     20 C         141.9257  136.3656  156.6473 C.2     1  UNL1       -0.0237
     21 C         141.0520  135.8187  155.5576 C.3     1  UNL1        0.0434
     22 C         141.4239  134.5388  154.8693 C.3     1  UNL1        0.0770
     23 C         142.4865  132.2164  153.2239 C.3     1  UNL1        0.0173
     24 C         143.0414  132.5260  154.5827 C.3     1  UNL1        0.0579
     25 C         143.9682  131.5558  155.2532 C.3     1  UNL1        0.0173
     26 C         139.7895  140.1500  161.5325 C.ar    1  UNL1       -0.0040
     27 C         138.5629  139.3097  161.3340 C.ar    1  UNL1       -0.0003
     28 C         138.4245  138.0022  162.0561 C.ar    1  UNL1       -0.0000
     29 C         139.5128  137.5351  162.9767 C.ar    1  UNL1       -0.0000
     30 C         140.7394  138.3754  163.1752 C.ar    1  UNL1       -0.0000
     31 C         140.8777  139.6828  162.4531 C.ar    1  UNL1       -0.0003
     32 C         139.5560  142.7373  161.4986 C.3     1  UNL1        0.0289
     33 C         138.1265  143.0022  161.8683 C.3     1  UNL1        0.0364
     34 C         137.5883  142.5135  163.1804 C.3     1  UNL1        0.1375
     35 O         136.6076  141.3791  163.2131 O.3     1  UNL1       -0.3820
     36 H         135.7793  141.6555  162.7907 H       1  UNL1        0.2104
@<TRIPOS>BOND
     1    23    24    1
     2    24    25    1
     3    24    17    1
     4    17    18    1
     5    18    19    1
     6    19    20    2
     7    20    11    1
     8    11    12   ar
     9    12    13   ar
    10    13    14   ar
    11    14     1    1
    12     1     2    2
    13     2    32    1
    14    32    33    1
    15    33    34    1
    16    34    35    1
    17     2    26    1
    18    26    27   ar
    19    27    28   ar
    20    28    29   ar
    21    29    30   ar
    22    30    31   ar
    23     1     3    1
    24     3     4   ar
    25     4     5   ar
    26     5     6   ar
    27     6     7    1
    28     6     8   ar
    29     8     9   ar
    30    14    15   ar
    31    15    16   ar
    32    20    21    1
    33    21    22    1
    34    22    17    1
    35    16    11   ar
    36    31    26   ar
    37     9     3   ar
    38    35    36    1
    39     7    10    1
@<TRIPOS>MOLECULE
*****
 36 39 0 0 0
SMALL
GASTEIGER

@<TRIPOS>ATOM
      1 C         140.6539  140.8366  164.8945 C.2     1  UNL1       -0.0040
      2 C         140.9814  142.0668  165.6877 C.2     1  UNL1       -0.0221
      3 C         139.7573  139.7850  165.4776 C.ar    1  UNL1       -0.0001
      4 C         138.9712  140.0753  166.7218 C.ar    1  UNL1        0.0031
      5 C         138.0745  139.0236  167.3048 C.ar    1  UNL1        0.0366
      6 C         137.9638  137.6817  166.6438 C.ar    1  UNL1        0.1337
      7 O         137.0670  136.6301  167.2269 O.3     1  UNL1       -0.5055
      8 C         138.7498  137.3914  165.3996 C.ar    1  UNL1        0.0366
      9 C         139.6465  138.4431  164.8165 C.ar    1  UNL1        0.0031
     10 H         136.5761  136.8115  168.0041 H       1  UNL1        0.2922
     11 C         142.3616  140.3006  160.7658 C.ar    1  UNL1       -0.0042
     12 C         143.1083  139.7830  161.9592 C.ar    1  UNL1       -0.0003
     13 C         142.5391  139.9617  163.3355 C.ar    1  UNL1       -0.0000
     14 C         141.2232  140.6579  163.5183 C.ar    1  UNL1       -0.0003
     15 C         140.4765  141.1756  162.3248 C.ar    1  UNL1       -0.0000
     16 C         141.0457  140.9969  160.9485 C.ar    1  UNL1       -0.0003
     17 N         144.0693  139.7647  156.6370 N.3     1  UNL1       -0.2700
     18 C         144.4657  140.9514  157.4643 C.3     1  UNL1        0.0985
     19 C         143.8965  141.1301  158.8406 C.2     1  UNL1       -0.0130
     20 C         142.9309  140.1220  159.3895 C.2     1  UNL1       -0.0237
     21 C         142.5345  138.9353  158.5622 C.3     1  UNL1        0.0434
     22 C         143.1037  138.7566  157.1859 C.3     1  UNL1        0.0770
     23 C         143.9023  138.7630  154.2456 C.3     1  UNL1        0.0173
     24 C         144.6386  139.5861  155.2608 C.3     1  UNL1        0.0579
     25 C         145.9440  140.2304  154.8996 C.3     1  UNL1        0.0173
     26 C         141.8781  143.1185  165.1046 C.ar    1  UNL1       -0.0040
     27 C         141.2886  144.2699  164.3451 C.ar    1  UNL1       -0.0003
     28 C         142.1854  145.3216  163.7621 C.ar    1  UNL1       -0.0000
     29 C         143.6716  145.2218  163.9386 C.ar    1  UNL1       -0.0000
     30 C         144.2611  144.0704  164.6981 C.ar    1  UNL1       -0.0000
     31 C         143.3644  143.0188  165.2811 C.ar    1  UNL1       -0.0003
     32 C         140.4122  142.2455  167.0639 C.3     1  UNL1        0.0289
     33 C         141.3266  142.4872  168.2282 C.3     1  UNL1        0.0364
     34 C         140.9567  141.9797  169.5904 C.3     1  UNL1        0.1375
     35 O         139.5497  141.5420  169.8711 O.3     1  UNL1       -0.3820
     36 H         138.9560  142.3071  169.8162 H       1  UNL1        0.2104
@<TRIPOS>BOND
     1    23    24    1
     2    24    25    1
     3    24    17    1
     4    17    18    1
     5    18    19    1
     6    19    20    2
     7    20    11    1
     8    11    12   ar
     9    12    13   ar
    10    13    14   ar
    11    14     1    1
    12     1     2    2
    13     2    32    1
    14    32    33    1
    15    33    34    1
    16    34    35    1
    17     2    26    1
    18    26    27   ar
    19    27    28   ar
    20    28    29   ar
    21    29    30   ar
    22    30    31   ar
    23     1     3    1
    24     3     4   ar
    25     4     5   ar
    26     5     6   ar
    27     6     7    1
    28     6     8   ar
    29     8     9   ar
    30    14    15   ar
    31    15    16   ar
    32    20    21    1
    33    21    22    1
    34    22    17    1
    35    16    11   ar
    36    31    26   ar
    37     9     3   ar
    38    35    36    1
    39     7    10    1
@<TRIPOS>MOLECULE
*****
 36 39 0 0 0
SMALL
GASTEIGER

@<TRIPOS>ATOM
      1 C         141.3279  141.2783  166.7257 C.2     1  UNL1       -0.0040
      2 C         142.1563  140.0288  166.7765 C.2     1  UNL1       -0.0221
      3 C         140.7243  141.8295  167.9834 C.ar    1  UNL1       -0.0001
      4 C         139.7360  141.0124  168.7617 C.ar    1  UNL1        0.0031
      5 C         139.1323  141.5636  170.0193 C.ar    1  UNL1        0.0366
      6 C         139.5169  142.9319  170.4987 C.ar    1  UNL1        0.1337
      7 O         138.9132  143.4831  171.7565 O.3     1  UNL1       -0.5055
      8 C         140.5052  143.7490  169.7205 C.ar    1  UNL1        0.0366
      9 C         141.1089  143.1978  168.4628 C.ar    1  UNL1        0.0031
     10 H         138.2959  142.9727  172.2426 H       1  UNL1        0.2922
     11 C         140.6536  143.3729  162.8004 C.ar    1  UNL1       -0.0042
     12 C         139.6646  142.3556  163.2873 C.ar    1  UNL1       -0.0003
     13 C         139.8894  141.6574  164.5957 C.ar    1  UNL1       -0.0000
     14 C         141.1032  141.9765  165.4173 C.ar    1  UNL1       -0.0003
     15 C         142.0921  142.9937  164.9304 C.ar    1  UNL1       -0.0000
     16 C         141.8674  143.6919  163.6220 C.ar    1  UNL1       -0.0003
     17 N         139.9793  145.4675  158.8751 N.3     1  UNL1       -0.2700
     18 C         140.0275  143.9692  158.9272 C.3     1  UNL1        0.0985
     19 C         140.2523  143.2710  160.2356 C.2     1  UNL1       -0.0130
     20 C         140.4288  144.0711  161.4920 C.2     1  UNL1       -0.0237
     21 C         140.3806  145.5694  161.4400 C.3     1  UNL1        0.0434
     22 C         140.1558  146.2676  160.1316 C.3     1  UNL1        0.0770
     23 C         140.2870  145.5697  156.2974 C.3     1  UNL1        0.0173
     24 C         139.7545  146.1657  157.5667 C.3     1  UNL1        0.0579
     25 C         138.9973  147.4599  157.5276 C.3     1  UNL1        0.0173
     26 C         142.7600  139.4776  165.5188 C.ar    1  UNL1       -0.0040
     27 C         141.9700  138.5380  164.6569 C.ar    1  UNL1       -0.0003
     28 C         142.5737  137.9868  163.3992 C.ar    1  UNL1       -0.0000
     29 C         143.9675  138.3751  163.0035 C.ar    1  UNL1       -0.0000
     30 C         144.7576  139.3147  163.8655 C.ar    1  UNL1       -0.0000
     31 C         144.1538  139.8659  165.1231 C.ar    1  UNL1       -0.0003
     32 C         142.3811  139.3306  168.0849 C.3     1  UNL1        0.0289
     33 C         143.0510  140.0539  169.2156 C.3     1  UNL1        0.0364
     34 C         142.7596  139.6620  170.6339 C.3     1  UNL1        0.1375
     35 O         142.2099  140.6748  171.5940 O.3     1  UNL1       -0.3820
     36 H         142.8726  141.3659  171.7495 H       1  UNL1        0.2104
@<TRIPOS>BOND
     1    23    24    1
     2    24    25    1
     3    24    17    1
     4    17    18    1
     5    18    19    1
     6    19    20    2
     7    20    11    1
     8    11    12   ar
     9    12    13   ar
    10    13    14   ar
    11    14     1    1
    12     1     2    2
    13     2    32    1
    14    32    33    1
    15    33    34    1
    16    34    35    1
    17     2    26    1
    18    26    27   ar
    19    27    28   ar
    20    28    29   ar
    21    29    30   ar
    22    30    31   ar
    23     1     3    1
    24     3     4   ar
    25     4     5   ar
    26     5     6   ar
    27     6     7    1
    28     6     8   ar
    29     8     9   ar
    30    14    15   ar
    31    15    16   ar
    32    20    21    1
    33    21    22    1
    34    22    17    1
    35    16    11   ar
    36    31    26   ar
    37     9     3   ar
    38    35    36    1
    39     7    10    1
@<TRIPOS>MOLECULE
*****
 36 39 0 0 0
SMALL
GASTEIGER

@<TRIPOS>ATOM
      1 C         140.2779  140.9575  164.5514 C.2     1  UNL1       -0.0040
      2 C         141.2138  141.8074  165.3586 C.2     1  UNL1       -0.0221
      3 C         139.5057  139.8552  165.2137 C.ar    1  UNL1       -0.0001
      4 C         138.5705  140.1687  166.3438 C.ar    1  UNL1        0.0031
      5 C         137.7983  139.0664  167.0061 C.ar    1  UNL1        0.0366
      6 C         137.9614  137.6506  166.5384 C.ar    1  UNL1        0.1337
      7 O         137.1892  136.5482  167.2008 O.3     1  UNL1       -0.5055
      8 C         138.8965  137.3370  165.4083 C.ar    1  UNL1        0.0366
      9 C         139.6688  138.4393  164.7460 C.ar    1  UNL1        0.0031
     10 H         136.6050  136.7441  167.9067 H       1  UNL1        0.2922
     11 C         139.7866  141.7146  160.1429 C.ar    1  UNL1       -0.0042
     12 C         138.8134  142.3069  161.1186 C.ar    1  UNL1       -0.0003
     13 C         138.9772  142.0545  162.5881 C.ar    1  UNL1       -0.0000
     14 C         140.1141  141.2098  163.0819 C.ar    1  UNL1       -0.0003
     15 C         141.0873  140.6176  162.1062 C.ar    1  UNL1       -0.0000
     16 C         140.9235  140.8699  160.6367 C.ar    1  UNL1       -0.0003
     17 N         139.2953  142.4717  155.7343 N.3     1  UNL1       -0.2700
     18 C         139.2569  143.6180  156.7010 C.3     1  UNL1        0.0985
     19 C         139.4207  143.3656  158.1705 C.2     1  UNL1       -0.0130
     20 C         139.6228  141.9669  158.6733 C.2     1  UNL1       -0.0237
     21 C         139.6612  140.8207  157.7066 C.3     1  UNL1        0.0434
     22 C         139.4974  141.0730  156.2371 C.3     1  UNL1        0.0770
     23 C         140.3366  142.7692  153.3727 C.3     1  UNL1        0.0173
     24 C         139.1316  142.7240  154.2648 C.3     1  UNL1        0.0579
     25 C         137.7628  142.9312  153.6873 C.3     1  UNL1        0.0173
     26 C         141.9860  142.9098  164.6963 C.ar    1  UNL1       -0.0040
     27 C         141.3260  144.2289  164.4239 C.ar    1  UNL1       -0.0003
     28 C         142.0982  145.3313  163.7616 C.ar    1  UNL1       -0.0000
     29 C         143.5304  145.1144  163.3718 C.ar    1  UNL1       -0.0000
     30 C         144.1903  143.7952  163.6443 C.ar    1  UNL1       -0.0000
     31 C         143.4181  142.6929  164.3066 C.ar    1  UNL1       -0.0003
     32 C         141.3775  141.5550  166.8282 C.3     1  UNL1        0.0289
     33 C         140.9836  142.6103  167.8188 C.3     1  UNL1        0.0364
     34 C         141.3125  142.4351  169.2718 C.3     1  UNL1        0.1375
     35 O         140.9503  143.5064  170.2573 O.3     1  UNL1       -0.3820
     36 H         141.4659  144.3062  170.0694 H       1  UNL1        0.2104
@<TRIPOS>BOND
     1    23    24    1
     2    24    25    1
     3    24    17    1
     4    17    18    1
     5    18    19    1
     6    19    20    2
     7    20    11    1
     8    11    12   ar
     9    12    13   ar
    10    13    14   ar
    11    14     1    1
    12     1     2    2
    13     2    32    1
    14    32    33    1
    15    33    34    1
    16    34    35    1
    17     2    26    1
    18    26    27   ar
    19    27    28   ar
    20    28    29   ar
    21    29    30   ar
    22    30    31   ar
    23     1     3    1
    24     3     4   ar
    25     4     5   ar
    26     5     6   ar
    27     6     7    1
    28     6     8   ar
    29     8     9   ar
    30    14    15   ar
    31    15    16   ar
    32    20    21    1
    33    21    22    1
    34    22    17    1
    35    16    11   ar
    36    31    26   ar
    37     9     3   ar
    38    35    36    1
    39     7    10    1
