@<TRIPOS>MOLECULE
*****
 35 38 0 0 0
SMALL
GASTEIGER

@<TRIPOS>ATOM
      1 N         141.0821  140.1179  164.2842 N.am    1  UNL1       -0.1423
      2 C         142.4656  139.6486  163.9443 C.3     1  UNL1        0.1438
      3 C         139.9933  140.0508  163.2547 C.2     1  UNL1        0.3260
      4 O         138.6097  140.5200  163.5946 O.2     1  UNL1       -0.2507
      5 N         140.2880  139.5144  161.8852 N.am    1  UNL1       -0.2627
      6 C         139.1991  139.4473  160.8557 C.3     1  UNL1        0.0964
      7 C         139.4939  138.9110  159.4862 C.3     1  UNL1        0.0376
      8 C         140.8775  138.4417  159.1463 C.3     1  UNL1        0.0609
      9 C         141.9663  138.5088  160.1758 C.3     1  UNL1        0.0376
     10 C         141.6716  139.0451  161.5453 C.3     1  UNL1        0.0964
     11 N         141.1722  137.9054  157.7768 N.3     1  UNL1       -0.2736
     12 C         140.0460  137.5254  156.8617 C.3     1  UNL1        0.0758
     13 C         140.3407  136.9890  155.4923 C.3     1  UNL1        0.0609
     14 C         141.7617  136.8326  155.0379 C.3     1  UNL1        0.1687
     15 C         142.8878  137.2126  155.9529 C.3     1  UNL1        0.0609
     16 C         142.5931  137.7489  157.3224 C.3     1  UNL1        0.0758
     17 O         142.0564  136.2963  153.6684 O.3     1  UNL1       -0.4790
     18 C         142.1923  134.8177  153.4552 C.ar    1  UNL1        0.1393
     19 C         141.7009  134.1952  152.1821 C.ar    1  UNL1        0.0378
     20 C         141.8368  132.7166  151.9689 C.ar    1  UNL1        0.0154
     21 C         142.4641  131.8606  153.0290 C.ar    1  UNL1        0.0684
     22 CL        142.6000  130.3821  152.8159 Cl      1  UNL1       -0.0814
     23 C         142.9555  132.4832  154.3022 C.ar    1  UNL1        0.0712
     24 CL        143.5829  131.6272  155.3623 Cl      1  UNL1       -0.0813
     25 C         142.8196  133.9617  154.5153 C.ar    1  UNL1        0.0491
     26 S         140.7874  140.6542  165.6537 S.O2    1  UNL1        0.0799
     27 O         141.1447  142.0352  165.1898 O.2     1  UNL1       -0.1496
     28 O         140.4300  139.2732  166.1176 O.2     1  UNL1       -0.1496
     29 C         139.6084  142.7996  171.1316 C.3     1  UNL1        0.0310
     30 C         139.9032  142.2633  169.7621 C.ar    1  UNL1       -0.0218
     31 C         139.6879  140.8091  169.4638 C.ar    1  UNL1       -0.0029
     32 C         139.9827  140.2727  168.0944 C.ar    1  UNL1        0.0199
     33 C         140.4926  141.1906  167.0232 C.ar    1  UNL1        0.1255
     34 C         140.7079  142.6447  167.3215 C.ar    1  UNL1        0.0199
     35 C         140.4131  143.1811  168.6909 C.ar    1  UNL1       -0.0029
@<TRIPOS>BOND
     1    29    30    1
     2    30    31   ar
     3    31    32   ar
     4    32    33   ar
     5    33    26    1
     6    26    27    2
     7    26    28    2
     8    26     1    1
     9     1     2    1
    10     1     3   am
    11     3     4    2
    12     3     5   am
    13     5     6    1
    14     6     7    1
    15     7     8    1
    16     8    11    1
    17    11    12    1
    18    12    13    1
    19    13    14    1
    20    14    17    1
    21    17    18    1
    22    18    19   ar
    23    19    20   ar
    24    20    21   ar
    25    21    22    1
    26    21    23   ar
    27    23    24    1
    28    23    25   ar
    29    14    15    1
    30    15    16    1
    31     8     9    1
    32     9    10    1
    33    33    34   ar
    34    34    35   ar
    35    35    30   ar
    36    10     5    1
    37    16    11    1
    38    25    18   ar
@<TRIPOS>MOLECULE
*****
 35 38 0 0 0
SMALL
GASTEIGER

@<TRIPOS>ATOM
      1 N         141.0485  140.0974  164.3198 N.am    1  UNL1       -0.1423
      2 C         142.3897  139.4983  164.0160 C.3     1  UNL1        0.1438
      3 C         139.9940  140.1546  163.2547 C.2     1  UNL1        0.3260
      4 O         138.6527  140.7536  163.5585 O.2     1  UNL1       -0.2507
      5 N         140.2806  139.6128  161.8856 N.am    1  UNL1       -0.2627
      6 C         139.2260  139.6700  160.8204 C.3     1  UNL1        0.0964
      7 C         139.5126  139.1282  159.4514 C.3     1  UNL1        0.0376
      8 C         140.8539  138.5292  159.1475 C.3     1  UNL1        0.0609
      9 C         141.9084  138.4719  160.2127 C.3     1  UNL1        0.0376
     10 C         141.6218  139.0137  161.5818 C.3     1  UNL1        0.0964
     11 N         141.1405  137.9874  157.7785 N.3     1  UNL1       -0.2736
     12 C         142.5590  137.8180  157.3207 C.3     1  UNL1        0.0758
     13 C         142.8456  137.2762  155.9517 C.3     1  UNL1        0.0609
     14 C         141.7138  136.9037  155.0404 C.3     1  UNL1        0.1687
     15 C         140.2955  137.0731  155.4982 C.3     1  UNL1        0.0609
     16 C         140.0089  137.6149  156.8672 C.3     1  UNL1        0.0758
     17 O         142.0005  136.3619  153.6713 O.3     1  UNL1       -0.4790
     18 C         142.1444  134.8831  153.4650 C.ar    1  UNL1        0.1393
     19 C         141.6521  134.2515  152.1967 C.ar    1  UNL1        0.0378
     20 C         141.7960  132.7727  151.9903 C.ar    1  UNL1        0.0154
     21 C         142.4322  131.9256  153.0523 C.ar    1  UNL1        0.0684
     22 CL        142.5761  130.4469  152.8460 Cl      1  UNL1       -0.0814
     23 C         142.9245  132.5574  154.3206 C.ar    1  UNL1        0.0712
     24 CL        143.5606  131.7103  155.3826 Cl      1  UNL1       -0.0813
     25 C         142.7805  134.0361  154.5269 C.ar    1  UNL1        0.0491
     26 S         140.7619  140.6392  165.6889 S.O2    1  UNL1        0.0799
     27 O         140.1947  139.3114  166.0956 O.2     1  UNL1       -0.1496
     28 O         141.3291  141.9669  165.2822 O.2     1  UNL1       -0.1496
     29 C         139.6153  142.8064  171.1651 C.3     1  UNL1        0.0310
     30 C         139.9020  142.2646  169.7960 C.ar    1  UNL1       -0.0218
     31 C         140.4348  143.1717  168.7268 C.ar    1  UNL1       -0.0029
     32 C         140.7214  142.6299  167.3578 C.ar    1  UNL1        0.0199
     33 C         140.4753  141.1810  167.0579 C.ar    1  UNL1        0.1255
     34 C         139.9425  140.2738  168.1271 C.ar    1  UNL1        0.0199
     35 C         139.6558  140.8156  169.4962 C.ar    1  UNL1       -0.0029
@<TRIPOS>BOND
     1    29    30    1
     2    30    31   ar
     3    31    32   ar
     4    32    33   ar
     5    33    26    1
     6    26    27    2
     7    26    28    2
     8    26     1    1
     9     1     2    1
    10     1     3   am
    11     3     4    2
    12     3     5   am
    13     5     6    1
    14     6     7    1
    15     7     8    1
    16     8    11    1
    17    11    12    1
    18    12    13    1
    19    13    14    1
    20    14    17    1
    21    17    18    1
    22    18    19   ar
    23    19    20   ar
    24    20    21   ar
    25    21    22    1
    26    21    23   ar
    27    23    24    1
    28    23    25   ar
    29    14    15    1
    30    15    16    1
    31     8     9    1
    32     9    10    1
    33    33    34   ar
    34    34    35   ar
    35    35    30   ar
    36    10     5    1
    37    16    11    1
    38    25    18   ar
@<TRIPOS>MOLECULE
*****
 35 38 0 0 0
SMALL
GASTEIGER

@<TRIPOS>ATOM
      1 N         142.2077  142.5507  163.8108 N.am    1  UNL1       -0.1423
      2 C         142.9899  141.9525  162.6795 C.3     1  UNL1        0.1438
      3 C         141.2604  143.6843  163.5508 C.2     1  UNL1        0.3260
      4 O         140.4781  144.2826  164.6822 O.2     1  UNL1       -0.2507
      5 N         141.0955  144.2197  162.1593 N.am    1  UNL1       -0.2627
      6 C         140.1482  145.3533  161.8993 C.3     1  UNL1        0.0964
      7 C         139.9833  145.8887  160.5078 C.3     1  UNL1        0.0376
      8 C         140.7657  145.2904  159.3764 C.3     1  UNL1        0.0609
      9 C         141.7129  144.1568  159.6365 C.3     1  UNL1        0.0376
     10 C         141.8778  143.6215  161.0279 C.3     1  UNL1        0.0964
     11 N         140.6007  145.8258  157.9849 N.3     1  UNL1       -0.2736
     12 C         141.6435  145.5435  156.9442 C.3     1  UNL1        0.0758
     13 C         141.4785  146.0788  155.5527 C.3     1  UNL1        0.0609
     14 C         140.2709  146.8966  155.2020 C.3     1  UNL1        0.1687
     15 C         139.2282  147.1789  156.2427 C.3     1  UNL1        0.0609
     16 C         139.3931  146.6435  157.6342 C.3     1  UNL1        0.0758
     17 O         140.1059  147.4320  153.8106 O.3     1  UNL1       -0.4790
     18 C         140.1909  148.9085  153.5601 C.ar    1  UNL1        0.1393
     19 C         141.1762  149.4448  152.5644 C.ar    1  UNL1        0.0378
     20 C         141.2613  150.9214  152.3139 C.ar    1  UNL1        0.0154
     21 C         140.3609  151.8615  153.0592 C.ar    1  UNL1        0.0684
     22 CL        140.4459  153.3380  152.8088 Cl      1  UNL1       -0.0814
     23 C         139.3756  151.3252  154.0550 C.ar    1  UNL1        0.0712
     24 CL        138.4753  152.2653  154.8003 Cl      1  UNL1       -0.0813
     25 C         139.2906  149.8487  154.3054 C.ar    1  UNL1        0.0491
     26 S         142.3726  142.0153  165.2023 S.O2    1  UNL1        0.0799
     27 O         143.5711  142.8956  165.3989 O.2     1  UNL1       -0.1496
     28 O         141.1741  141.1350  165.0057 O.2     1  UNL1       -0.1496
     29 C         143.0323  139.8738  170.7682 C.3     1  UNL1        0.0310
     30 C         142.8674  140.4092  169.3767 C.ar    1  UNL1       -0.0218
     31 C         142.9729  141.8838  169.1231 C.ar    1  UNL1       -0.0029
     32 C         142.8079  142.4192  167.7316 C.ar    1  UNL1        0.0199
     33 C         142.5375  141.4799  166.5938 C.ar    1  UNL1        0.1255
     34 C         142.4321  140.0053  166.8474 C.ar    1  UNL1        0.0199
     35 C         142.5970  139.4700  168.2389 C.ar    1  UNL1       -0.0029
@<TRIPOS>BOND
     1    29    30    1
     2    30    31   ar
     3    31    32   ar
     4    32    33   ar
     5    33    26    1
     6    26    27    2
     7    26    28    2
     8    26     1    1
     9     1     2    1
    10     1     3   am
    11     3     4    2
    12     3     5   am
    13     5     6    1
    14     6     7    1
    15     7     8    1
    16     8    11    1
    17    11    12    1
    18    12    13    1
    19    13    14    1
    20    14    17    1
    21    17    18    1
    22    18    19   ar
    23    19    20   ar
    24    20    21   ar
    25    21    22    1
    26    21    23   ar
    27    23    24    1
    28    23    25   ar
    29    14    15    1
    30    15    16    1
    31     8     9    1
    32     9    10    1
    33    33    34   ar
    34    34    35   ar
    35    35    30   ar
    36    10     5    1
    37    16    11    1
    38    25    18   ar
@<TRIPOS>MOLECULE
*****
 35 38 0 0 0
SMALL
GASTEIGER

@<TRIPOS>ATOM
      1 N         140.3728  143.4943  163.2276 N.am    1  UNL1       -0.1423
      2 C         141.0583  144.8238  163.1161 C.3     1  UNL1        0.1438
      3 C         139.8135  142.8338  162.0025 C.2     1  UNL1        0.3260
      4 O         139.1280  141.5042  162.1140 O.2     1  UNL1       -0.2507
      5 N         139.9397  143.5028  160.6659 N.am    1  UNL1       -0.2627
      6 C         139.3804  142.8422  159.4407 C.3     1  UNL1        0.0964
      7 C         139.5066  143.5112  158.1041 C.3     1  UNL1        0.0376
      8 C         140.1921  144.8408  157.9927 C.3     1  UNL1        0.0609
      9 C         140.7514  145.5013  159.2178 C.3     1  UNL1        0.0376
     10 C         140.6252  144.8323  160.5544 C.3     1  UNL1        0.0964
     11 N         140.3183  145.5098  156.6561 N.3     1  UNL1       -0.2736
     12 C         139.4622  146.6969  156.3277 C.3     1  UNL1        0.0758
     13 C         139.5884  147.3659  154.9911 C.3     1  UNL1        0.0609
     14 C         140.5707  146.8478  153.9828 C.3     1  UNL1        0.1687
     15 C         141.4268  145.6607  154.3112 C.3     1  UNL1        0.0609
     16 C         141.3006  144.9917  155.6478 C.3     1  UNL1        0.0758
     17 O         140.6969  147.5168  152.6462 O.3     1  UNL1       -0.4790
     18 C         141.0542  148.9715  152.5664 C.ar    1  UNL1        0.1393
     19 C         139.9872  150.0151  152.7162 C.ar    1  UNL1        0.0378
     20 C         140.3444  151.4698  152.6364 C.ar    1  UNL1        0.0154
     21 C         141.7686  151.8808  152.4067 C.ar    1  UNL1        0.0684
     22 CL        142.1259  153.3354  152.3269 Cl      1  UNL1       -0.0814
     23 C         142.8356  150.8371  152.2569 C.ar    1  UNL1        0.0712
     24 CL        144.2598  151.2481  152.0272 Cl      1  UNL1       -0.0813
     25 C         142.4783  149.3825  152.3367 C.ar    1  UNL1        0.0491
     26 S         140.2466  142.8253  164.5642 S.O2    1  UNL1        0.0799
     27 O         138.9054  143.4681  164.7593 O.2     1  UNL1       -0.1496
     28 O         141.5878  142.1825  164.3691 O.2     1  UNL1       -0.1496
     29 C         139.7418  140.1493  169.9106 C.3     1  UNL1        0.0310
     30 C         139.8680  140.8183  168.5740 C.ar    1  UNL1       -0.0218
     31 C         140.4266  142.2072  168.4802 C.ar    1  UNL1       -0.0029
     32 C         140.5528  142.8762  167.1436 C.ar    1  UNL1        0.0199
     33 C         140.1204  142.1563  165.9008 C.ar    1  UNL1        0.1255
     34 C         139.5618  140.7674  165.9945 C.ar    1  UNL1        0.0199
     35 C         139.4356  140.0984  167.3311 C.ar    1  UNL1       -0.0029
@<TRIPOS>BOND
     1    29    30    1
     2    30    31   ar
     3    31    32   ar
     4    32    33   ar
     5    33    26    1
     6    26    27    2
     7    26    28    2
     8    26     1    1
     9     1     2    1
    10     1     3   am
    11     3     4    2
    12     3     5   am
    13     5     6    1
    14     6     7    1
    15     7     8    1
    16     8    11    1
    17    11    12    1
    18    12    13    1
    19    13    14    1
    20    14    17    1
    21    17    18    1
    22    18    19   ar
    23    19    20   ar
    24    20    21   ar
    25    21    22    1
    26    21    23   ar
    27    23    24    1
    28    23    25   ar
    29    14    15    1
    30    15    16    1
    31     8     9    1
    32     9    10    1
    33    33    34   ar
    34    34    35   ar
    35    35    30   ar
    36    10     5    1
    37    16    11    1
    38    25    18   ar
@<TRIPOS>MOLECULE
*****
 35 38 0 0 0
SMALL
GASTEIGER

@<TRIPOS>ATOM
      1 N         140.7985  143.4013  163.6854 N.am    1  UNL1       -0.1423
      2 C         140.5000  144.8694  163.7583 C.3     1  UNL1        0.1438
      3 C         140.9278  142.7276  162.3515 C.2     1  UNL1        0.3260
      4 O         141.2263  141.2594  162.2785 O.2     1  UNL1       -0.2507
      5 N         140.7587  143.5221  161.0905 N.am    1  UNL1       -0.2627
      6 C         140.8881  142.8484  159.7565 C.3     1  UNL1        0.0964
      7 C         140.7190  143.6429  158.4955 C.3     1  UNL1        0.0376
      8 C         140.4205  145.1111  158.5685 C.3     1  UNL1        0.0609
      9 C         140.2911  145.7848  159.9024 C.3     1  UNL1        0.0376
     10 C         140.4602  144.9903  161.1634 C.3     1  UNL1        0.0964
     11 N         140.2513  145.9056  157.3074 N.3     1  UNL1       -0.2736
     12 C         141.1100  145.6096  156.1136 C.3     1  UNL1        0.0758
     13 C         140.9409  146.4041  154.8526 C.3     1  UNL1        0.0609
     14 C         139.9131  147.4947  154.7854 C.3     1  UNL1        0.1687
     15 C         139.0545  147.7907  155.9792 C.3     1  UNL1        0.0609
     16 C         139.2237  146.9962  157.2402 C.3     1  UNL1        0.0758
     17 O         139.7440  148.2892  153.5244 O.3     1  UNL1       -0.4790
     18 C         140.1444  149.7344  153.4891 C.ar    1  UNL1        0.1393
     19 C         141.4038  150.1468  152.7864 C.ar    1  UNL1        0.0378
     20 C         141.8041  151.5920  152.7511 C.ar    1  UNL1        0.0154
     21 C         140.9451  152.6247  153.4186 C.ar    1  UNL1        0.0684
     22 CL        141.3454  154.0698  153.3833 Cl      1  UNL1       -0.0814
     23 C         139.6857  152.2122  154.1213 C.ar    1  UNL1        0.0712
     24 CL        138.8266  153.2450  154.7888 Cl      1  UNL1       -0.0813
     25 C         139.2853  150.7671  154.1566 C.ar    1  UNL1        0.0491
     26 S         140.9676  142.6068  164.9464 S.O2    1  UNL1        0.0799
     27 O         139.5096  142.2553  164.9206 O.2     1  UNL1       -0.1496
     28 O         142.4256  142.9582  164.9723 O.2     1  UNL1       -0.1496
     29 C         141.6441  139.4287  169.9905 C.3     1  UNL1        0.0310
     30 C         141.4749  140.2233  168.7295 C.ar    1  UNL1       -0.0218
     31 C         140.1458  140.2540  168.0350 C.ar    1  UNL1       -0.0029
     32 C         139.9767  141.0485  166.7740 C.ar    1  UNL1        0.0199
     33 C         141.1367  141.8123  166.2075 C.ar    1  UNL1        0.1255
     34 C         142.4658  141.7815  166.9020 C.ar    1  UNL1        0.0199
     35 C         142.6350  140.9870  168.1630 C.ar    1  UNL1       -0.0029
@<TRIPOS>BOND
     1    29    30    1
     2    30    31   ar
     3    31    32   ar
     4    32    33   ar
     5    33    26    1
     6    26    27    2
     7    26    28    2
     8    26     1    1
     9     1     2    1
    10     1     3   am
    11     3     4    2
    12     3     5   am
    13     5     6    1
    14     6     7    1
    15     7     8    1
    16     8    11    1
    17    11    12    1
    18    12    13    1
    19    13    14    1
    20    14    17    1
    21    17    18    1
    22    18    19   ar
    23    19    20   ar
    24    20    21   ar
    25    21    22    1
    26    21    23   ar
    27    23    24    1
    28    23    25   ar
    29    14    15    1
    30    15    16    1
    31     8     9    1
    32     9    10    1
    33    33    34   ar
    34    34    35   ar
    35    35    30   ar
    36    10     5    1
    37    16    11    1
    38    25    18   ar
@<TRIPOS>MOLECULE
*****
 35 38 0 0 0
SMALL
GASTEIGER

@<TRIPOS>ATOM
      1 N         143.1501  133.7636  156.2539 N.am    1  UNL1       -0.1423
      2 C         143.3532  133.8889  157.7348 C.3     1  UNL1        0.1438
      3 C         142.8305  134.9791  155.4352 C.2     1  UNL1        0.3260
      4 O         142.6273  134.8538  153.9543 O.2     1  UNL1       -0.2507
      5 N         142.7141  136.3200  156.0974 N.am    1  UNL1       -0.2627
      6 C         142.3945  137.5355  155.2786 C.3     1  UNL1        0.0964
      7 C         142.2781  138.8764  155.9408 C.3     1  UNL1        0.0376
      8 C         142.4813  139.0018  157.4217 C.3     1  UNL1        0.0609
      9 C         142.8008  137.7862  158.2404 C.3     1  UNL1        0.0376
     10 C         142.9172  136.4453  157.5782 C.3     1  UNL1        0.0964
     11 N         142.3648  140.3427  158.0839 N.3     1  UNL1       -0.2736
     12 C         141.2614  141.2798  157.6910 C.3     1  UNL1        0.0758
     13 C         141.1450  142.6207  158.3532 C.3     1  UNL1        0.0609
     14 C         142.1320  143.0245  159.4082 C.3     1  UNL1        0.1687
     15 C         143.2354  142.0873  159.8009 C.3     1  UNL1        0.0609
     16 C         143.3518  140.7464  159.1388 C.3     1  UNL1        0.0758
     17 O         142.0156  144.3654  160.0703 O.3     1  UNL1       -0.4790
     18 C         141.3057  144.4932  161.3855 C.ar    1  UNL1        0.1393
     19 C         142.0782  144.8369  162.6245 C.ar    1  UNL1        0.0378
     20 C         141.3683  144.9647  163.9397 C.ar    1  UNL1        0.0154
     21 C         139.8859  144.7490  164.0159 C.ar    1  UNL1        0.0684
     22 CL        139.1759  144.8768  165.3310 Cl      1  UNL1       -0.0814
     23 C         139.1133  144.4053  162.7768 C.ar    1  UNL1        0.0712
     24 CL        137.6309  144.1896  162.8530 Cl      1  UNL1       -0.0813
     25 C         139.8232  144.2775  161.4617 C.ar    1  UNL1        0.0491
     26 S         143.2665  132.4227  155.5918 S.O2    1  UNL1        0.0799
     27 O         144.7595  132.4885  155.7209 O.2     1  UNL1       -0.1496
     28 O         141.7735  132.3568  155.4626 O.2     1  UNL1       -0.1496
     29 C         143.7321  127.0591  152.9432 C.3     1  UNL1        0.0310
     30 C         143.6157  128.4000  153.6053 C.ar    1  UNL1       -0.0218
     31 C         142.3230  129.1581  153.5418 C.ar    1  UNL1       -0.0029
     32 C         142.2066  130.4990  154.2040 C.ar    1  UNL1        0.0199
     33 C         143.3829  131.0818  154.9296 C.ar    1  UNL1        0.1255
     34 C         144.6756  130.3236  154.9931 C.ar    1  UNL1        0.0199
     35 C         144.7920  128.9827  154.3310 C.ar    1  UNL1       -0.0029
@<TRIPOS>BOND
     1    29    30    1
     2    30    31   ar
     3    31    32   ar
     4    32    33   ar
     5    33    26    1
     6    26    27    2
     7    26    28    2
     8    26     1    1
     9     1     2    1
    10     1     3   am
    11     3     4    2
    12     3     5   am
    13     5     6    1
    14     6     7    1
    15     7     8    1
    16     8    11    1
    17    11    12    1
    18    12    13    1
    19    13    14    1
    20    14    17    1
    21    17    18    1
    22    18    19   ar
    23    19    20   ar
    24    20    21   ar
    25    21    22    1
    26    21    23   ar
    27    23    24    1
    28    23    25   ar
    29    14    15    1
    30    15    16    1
    31     8     9    1
    32     9    10    1
    33    33    34   ar
    34    34    35   ar
    35    35    30   ar
    36    10     5    1
    37    16    11    1
    38    25    18   ar
@<TRIPOS>MOLECULE
*****
 35 38 0 0 0
SMALL
GASTEIGER

@<TRIPOS>ATOM
      1 N         141.9976  140.3468  163.1954 N.am    1  UNL1       -0.1423
      2 C         141.8983  139.1515  162.2946 C.3     1  UNL1        0.1438
      3 C         142.7535  141.5625  162.7477 C.2     1  UNL1        0.3260
      4 O         142.8528  142.7579  163.6485 O.2     1  UNL1       -0.2507
      5 N         143.4101  141.5831  161.3992 N.am    1  UNL1       -0.2627
      6 C         144.1660  142.7990  160.9515 C.3     1  UNL1        0.0964
      7 C         144.8226  142.8195  159.6030 C.3     1  UNL1        0.0376
      8 C         144.7232  141.6241  158.7022 C.3     1  UNL1        0.0609
      9 C         143.9674  140.4084  159.1499 C.3     1  UNL1        0.0376
     10 C         143.3108  140.3878  160.4984 C.3     1  UNL1        0.0964
     11 N         145.3798  141.6447  157.3537 N.3     1  UNL1       -0.2736
     12 C         144.8585  140.7700  156.2522 C.3     1  UNL1        0.0758
     13 C         145.5151  140.7905  154.9037 C.3     1  UNL1        0.0609
     14 C         146.6930  141.6858  154.6567 C.3     1  UNL1        0.1687
     15 C         147.2143  142.5604  155.7581 C.3     1  UNL1        0.0609
     16 C         146.5578  142.5399  157.1066 C.3     1  UNL1        0.0758
     17 O         147.3496  141.7063  153.3082 O.3     1  UNL1       -0.4790
     18 C         148.8074  142.0394  153.1888 C.ar    1  UNL1        0.1393
     19 C         149.2386  143.4644  153.0064 C.ar    1  UNL1        0.0378
     20 C         150.6963  143.7975  152.8870 C.ar    1  UNL1        0.0154
     21 C         151.7227  142.7055  152.9500 C.ar    1  UNL1        0.0684
     22 CL        153.1804  143.0385  152.8306 Cl      1  UNL1       -0.0814
     23 C         151.2914  141.2804  153.1323 C.ar    1  UNL1        0.0712
     24 CL        152.3179  140.1884  153.1953 Cl      1  UNL1       -0.0813
     25 C         149.8338  140.9474  153.2517 C.ar    1  UNL1        0.0491
     26 S         141.3410  140.3262  164.5439 S.O2    1  UNL1        0.0799
     27 O         140.1082  140.9436  163.9531 O.2     1  UNL1       -0.1496
     28 O         142.5738  139.7089  165.1348 O.2     1  UNL1       -0.1496
     29 C         138.7146  140.2441  169.9379 C.3     1  UNL1        0.0310
     30 C         139.3712  140.2646  168.5894 C.ar    1  UNL1       -0.0218
     31 C         140.5704  141.1339  168.3523 C.ar    1  UNL1       -0.0029
     32 C         141.2270  141.1544  167.0038 C.ar    1  UNL1        0.0199
     33 C         140.6844  140.3057  165.8924 C.ar    1  UNL1        0.1255
     34 C         139.4852  139.4365  166.1295 C.ar    1  UNL1        0.0199
     35 C         138.8286  139.4159  167.4780 C.ar    1  UNL1       -0.0029
@<TRIPOS>BOND
     1    29    30    1
     2    30    31   ar
     3    31    32   ar
     4    32    33   ar
     5    33    26    1
     6    26    27    2
     7    26    28    2
     8    26     1    1
     9     1     2    1
    10     1     3   am
    11     3     4    2
    12     3     5   am
    13     5     6    1
    14     6     7    1
    15     7     8    1
    16     8    11    1
    17    11    12    1
    18    12    13    1
    19    13    14    1
    20    14    17    1
    21    17    18    1
    22    18    19   ar
    23    19    20   ar
    24    20    21   ar
    25    21    22    1
    26    21    23   ar
    27    23    24    1
    28    23    25   ar
    29    14    15    1
    30    15    16    1
    31     8     9    1
    32     9    10    1
    33    33    34   ar
    34    34    35   ar
    35    35    30   ar
    36    10     5    1
    37    16    11    1
    38    25    18   ar
@<TRIPOS>MOLECULE
*****
 35 38 0 0 0
SMALL
GASTEIGER

@<TRIPOS>ATOM
      1 N         142.3529  135.8274  155.5301 N.am    1  UNL1       -0.1423
      2 C         140.9067  136.1735  155.3333 C.3     1  UNL1        0.1438
      3 C         143.3986  136.8995  155.4474 C.2     1  UNL1        0.3260
      4 O         144.8449  136.5533  155.6441 O.2     1  UNL1       -0.2507
      5 N         142.9982  138.3178  155.1680 N.am    1  UNL1       -0.2627
      6 C         144.0441  139.3899  155.0853 C.3     1  UNL1        0.0964
      7 C         143.6437  140.8083  154.8059 C.3     1  UNL1        0.0376
      8 C         142.1975  141.1544  154.6091 C.3     1  UNL1        0.0609
      9 C         141.1517  140.0823  154.6918 C.3     1  UNL1        0.0376
     10 C         141.5521  138.6640  154.9712 C.3     1  UNL1        0.0964
     11 N         141.7971  142.5727  154.3297 N.3     1  UNL1       -0.2736
     12 C         140.4310  142.8736  153.7880 C.3     1  UNL1        0.0758
     13 C         140.0306  144.2919  153.5086 C.3     1  UNL1        0.0609
     14 C         140.9963  145.4094  153.7709 C.3     1  UNL1        0.1687
     15 C         142.3623  145.1085  154.3125 C.3     1  UNL1        0.0609
     16 C         142.7627  143.6902  154.5919 C.3     1  UNL1        0.0758
     17 O         140.5959  146.8277  153.4915 O.3     1  UNL1       -0.4790
     18 C         139.9272  147.6424  154.5588 C.ar    1  UNL1        0.1393
     19 C         139.6192  147.0253  155.8908 C.ar    1  UNL1        0.0378
     20 C         138.9505  147.8400  156.9582 C.ar    1  UNL1        0.0154
     21 C         138.5899  149.2718  156.6934 C.ar    1  UNL1        0.0684
     22 CL        137.9212  150.0865  157.7607 Cl      1  UNL1       -0.0814
     23 C         138.8980  149.8888  155.3613 C.ar    1  UNL1        0.0712
     24 CL        138.5373  151.3206  155.0966 Cl      1  UNL1       -0.0813
     25 C         139.5666  149.0741  154.2941 C.ar    1  UNL1        0.0491
     26 S         142.7532  134.4090  155.8095 S.O2    1  UNL1        0.0799
     27 O         142.9417  134.7477  157.2585 O.2     1  UNL1       -0.1496
     28 O         142.5648  134.0704  154.3604 O.2     1  UNL1       -0.1496
     29 C         144.3548  128.7358  156.9272 C.3     1  UNL1        0.0310
     30 C         143.9544  130.1541  156.6477 C.ar    1  UNL1       -0.0218
     31 C         144.9011  131.2756  156.9575 C.ar    1  UNL1       -0.0029
     32 C         144.5007  132.6939  156.6781 C.ar    1  UNL1        0.0199
     33 C         143.1536  132.9907  156.0889 C.ar    1  UNL1        0.1255
     34 C         142.2069  131.8693  155.7792 C.ar    1  UNL1        0.0199
     35 C         142.6073  130.4509  156.0586 C.ar    1  UNL1       -0.0029
@<TRIPOS>BOND
     1    29    30    1
     2    30    31   ar
     3    31    32   ar
     4    32    33   ar
     5    33    26    1
     6    26    27    2
     7    26    28    2
     8    26     1    1
     9     1     2    1
    10     1     3   am
    11     3     4    2
    12     3     5   am
    13     5     6    1
    14     6     7    1
    15     7     8    1
    16     8    11    1
    17    11    12    1
    18    12    13    1
    19    13    14    1
    20    14    17    1
    21    17    18    1
    22    18    19   ar
    23    19    20   ar
    24    20    21   ar
    25    21    22    1
    26    21    23   ar
    27    23    24    1
    28    23    25   ar
    29    14    15    1
    30    15    16    1
    31     8     9    1
    32     9    10    1
    33    33    34   ar
    34    34    35   ar
    35    35    30   ar
    36    10     5    1
    37    16    11    1
    38    25    18   ar
@<TRIPOS>MOLECULE
*****
 35 38 0 0 0
SMALL
GASTEIGER

@<TRIPOS>ATOM
      1 N         141.5231  140.8854  164.1311 N.am    1  UNL1       -0.1423
      2 C         140.6131  141.6409  163.2087 C.3     1  UNL1        0.1438
      3 C         142.3006  139.7090  163.6200 C.2     1  UNL1        0.3260
      4 O         143.2108  138.9534  164.5425 O.2     1  UNL1       -0.2507
      5 N         142.1681  139.2880  162.1864 N.am    1  UNL1       -0.2627
      6 C         142.9457  138.1114  161.6753 C.3     1  UNL1        0.0964
      7 C         142.8131  137.6904  160.2417 C.3     1  UNL1        0.0376
      8 C         141.9030  138.4459  159.3192 C.3     1  UNL1        0.0609
      9 C         141.1255  139.6224  159.8303 C.3     1  UNL1        0.0376
     10 C         141.2580  140.0434  161.2639 C.3     1  UNL1        0.0964
     11 N         141.7704  138.0249  157.8856 N.3     1  UNL1       -0.2736
     12 C         140.4145  137.7440  157.3087 C.3     1  UNL1        0.0758
     13 C         140.2820  137.3230  155.8752 C.3     1  UNL1        0.0609
     14 C         141.5053  137.1829  155.0184 C.3     1  UNL1        0.1687
     15 C         142.8611  137.4639  155.5953 C.3     1  UNL1        0.0609
     16 C         142.9937  137.8849  157.0289 C.3     1  UNL1        0.0758
     17 O         141.3728  136.7619  153.5848 O.3     1  UNL1       -0.4790
     18 C         141.3220  135.3047  153.2327 C.ar    1  UNL1        0.1393
     19 C         140.2388  134.7878  152.3330 C.ar    1  UNL1        0.0378
     20 C         140.1880  133.3305  151.9809 C.ar    1  UNL1        0.0154
     21 C         141.2204  132.3902  152.5286 C.ar    1  UNL1        0.0684
     22 CL        141.1697  130.9330  152.1766 Cl      1  UNL1       -0.0814
     23 C         142.3036  132.9072  153.4284 C.ar    1  UNL1        0.0712
     24 CL        143.3360  131.9668  153.9762 Cl      1  UNL1       -0.0813
     25 C         142.3543  134.3644  153.7805 C.ar    1  UNL1        0.0491
     26 S         141.6557  141.3064  165.5647 S.O2    1  UNL1        0.0799
     27 O         142.9575  141.9803  165.2465 O.2     1  UNL1       -0.1496
     28 O         140.3539  140.6326  165.8830 O.2     1  UNL1       -0.1496
     29 C         142.1859  142.9904  171.2991 C.3     1  UNL1        0.0310
     30 C         142.0533  142.5694  169.8655 C.ar    1  UNL1       -0.0218
     31 C         140.7398  142.7219  169.1574 C.ar    1  UNL1       -0.0029
     32 C         140.6073  142.3009  167.7238 C.ar    1  UNL1        0.0199
     33 C         141.7882  141.7274  166.9983 C.ar    1  UNL1        0.1255
     34 C         143.1018  141.5750  167.7064 C.ar    1  UNL1        0.0199
     35 C         143.2343  141.9960  169.1399 C.ar    1  UNL1       -0.0029
@<TRIPOS>BOND
     1    29    30    1
     2    30    31   ar
     3    31    32   ar
     4    32    33   ar
     5    33    26    1
     6    26    27    2
     7    26    28    2
     8    26     1    1
     9     1     2    1
    10     1     3   am
    11     3     4    2
    12     3     5   am
    13     5     6    1
    14     6     7    1
    15     7     8    1
    16     8    11    1
    17    11    12    1
    18    12    13    1
    19    13    14    1
    20    14    17    1
    21    17    18    1
    22    18    19   ar
    23    19    20   ar
    24    20    21   ar
    25    21    22    1
    26    21    23   ar
    27    23    24    1
    28    23    25   ar
    29    14    15    1
    30    15    16    1
    31     8     9    1
    32     9    10    1
    33    33    34   ar
    34    34    35   ar
    35    35    30   ar
    36    10     5    1
    37    16    11    1
    38    25    18   ar
