@<TRIPOS>MOLECULE
*****
 30 32 0 0 0
SMALL
GASTEIGER

@<TRIPOS>ATOM
      1 N         141.2460  143.0175  163.5324 N.am    1  UNL1       -0.2684
      2 C         142.2931  143.9736  163.0432 C.2     1  UNL1        0.2418
      3 O         142.8809  144.9862  163.9808 O.2     1  UNL1       -0.2733
      4 H         140.8602  142.3529  162.9170 H       1  UNL1        0.1563
      5 C         138.8192  144.8641  164.6945 C.3     1  UNL1        0.1552
      6 N         139.6711  143.9228  165.4934 N.ar    1  UNL1       -0.2356
      7 N         139.5572  143.6650  166.9667 N.ar    1  UNL1       -0.1681
      8 C         140.6023  142.6569  167.3430 C.ar    1  UNL1        0.1038
      9 C         141.3621  142.2917  166.1024 C.ar    1  UNL1        0.0549
     10 C         140.7866  143.0740  164.9592 C.ar    1  UNL1        0.1327
     11 C         140.8449  142.1101  168.7187 C.ar    1  UNL1        0.0225
     12 C         140.0630  140.9254  169.2035 C.ar    1  UNL1        0.0222
     13 C         140.3056  140.3787  170.5790 C.ar    1  UNL1        0.0989
     14 N         141.3302  141.0166  171.4697 N.ar    1  UNL1       -0.2423
     15 C         142.1121  142.2013  170.9849 C.ar    1  UNL1        0.0989
     16 C         141.8695  142.7480  169.6093 C.ar    1  UNL1        0.0222
     17 C         142.7525  143.9171  161.6164 C.3     1  UNL1        0.1365
     18 N         142.2304  144.9099  160.6206 N.3     1  UNL1       -0.2863
     19 H         142.8706  144.8951  159.8266 H       1  UNL1        0.1240
     20 C         140.8461  144.7563  160.0636 C.3     1  UNL1        0.1113
     21 C         139.6536  144.9868  160.9439 C.2     1  UNL1        0.0663
     22 O         139.2541  146.3841  161.3149 O.co2   1  UNL1       -0.5477
     23 O         138.8607  143.8197  161.4532 O.co2   1  UNL1       -0.5477
     24 C         143.7339  142.8678  161.1854 C.3     1  UNL1        0.0514
     25 C         144.1636  141.8018  162.1491 C.ar    1  UNL1       -0.0203
     26 C         143.4563  140.4791  162.1689 C.ar    1  UNL1       -0.0042
     27 C         143.8860  139.4131  163.1326 C.ar    1  UNL1       -0.0003
     28 C         145.0230  139.6697  164.0767 C.ar    1  UNL1       -0.0000
     29 C         145.7303  140.9923  164.0571 C.ar    1  UNL1       -0.0003
     30 C         145.3006  142.0583  163.0933 C.ar    1  UNL1       -0.0042
@<TRIPOS>UNITY_ATOM_ATTR
22 1
charge -1
@<TRIPOS>BOND
     1     5     6    1
     2     6     7   ar
     3     7     8   ar
     4     8    11    1
     5    11    12   ar
     6    12    13   ar
     7    13    14   ar
     8    14    15   ar
     9    15    16   ar
    10     8     9   ar
    11     9    10   ar
    12    10     1    1
    13     1     2   am
    14     2     3    2
    15     2    17    1
    16    17    24    1
    17    24    25    1
    18    25    26   ar
    19    26    27   ar
    20    27    28   ar
    21    28    29   ar
    22    29    30   ar
    23    17    18    1
    24    18    20    1
    25    20    21    1
    26    21    22   ar
    27    21    23   ar
    28    10     6   ar
    29    30    25   ar
    30    16    11   ar
    31     1     4    1
    32    18    19    1
@<TRIPOS>MOLECULE
*****
 30 32 0 0 0
SMALL
GASTEIGER

@<TRIPOS>ATOM
      1 N         141.9854  140.1145  163.9405 N.am    1  UNL1       -0.2684
      2 C         143.3925  139.5974  163.8907 C.2     1  UNL1        0.2418
      3 O         144.0324  139.0441  165.1294 O.2     1  UNL1       -0.2733
      4 H         141.5654  140.4777  163.1275 H       1  UNL1        0.1563
      5 C         139.2749  138.3889  164.5111 C.3     1  UNL1        0.1552
      6 N         139.9722  139.2851  165.4912 N.ar    1  UNL1       -0.2356
      7 N         139.5462  139.5455  166.9056 N.ar    1  UNL1       -0.1681
      8 C         140.5287  140.4996  167.5175 C.ar    1  UNL1        0.1038
      9 C         141.5620  140.8288  166.4813 C.ar    1  UNL1        0.0549
     10 C         141.2181  140.0783  165.2289 C.ar    1  UNL1        0.1327
     11 C         140.4854  141.0310  168.9196 C.ar    1  UNL1        0.0225
     12 C         140.8190  140.1321  170.0731 C.ar    1  UNL1        0.0222
     13 C         140.7757  140.6636  171.4750 C.ar    1  UNL1        0.0989
     14 N         140.3989  142.0941  171.7235 N.ar    1  UNL1       -0.2423
     15 C         140.0654  142.9930  170.5701 C.ar    1  UNL1        0.0989
     16 C         140.1087  142.4615  169.1681 C.ar    1  UNL1        0.0222
     17 C         144.1598  139.6336  162.6023 C.3     1  UNL1        0.1365
     18 N         144.3082  138.3864  161.7825 N.3     1  UNL1       -0.2863
     19 H         144.1506  137.5996  162.4122 H       1  UNL1        0.1240
     20 C         143.4301  138.1662  160.5864 C.3     1  UNL1        0.1113
     21 C         141.9479  138.0157  160.7616 C.2     1  UNL1        0.0663
     22 O         141.3986  137.4199  162.0237 O.co2   1  UNL1       -0.5477
     23 O         141.0152  138.4611  159.6745 O.co2   1  UNL1       -0.5477
     24 C         144.7787  140.9172  162.1338 C.3     1  UNL1        0.0514
     25 C         144.4663  142.2024  162.8411 C.ar    1  UNL1       -0.0203
     26 C         143.7016  143.2815  162.1333 C.ar    1  UNL1       -0.0042
     27 C         143.3893  144.5668  162.8406 C.ar    1  UNL1       -0.0003
     28 C         143.8415  144.7731  164.2558 C.ar    1  UNL1       -0.0000
     29 C         144.6061  143.6941  164.9637 C.ar    1  UNL1       -0.0003
     30 C         144.9185  142.4088  164.2563 C.ar    1  UNL1       -0.0042
@<TRIPOS>UNITY_ATOM_ATTR
22 1
charge -1
@<TRIPOS>BOND
     1     5     6    1
     2     6     7   ar
     3     7     8   ar
     4     8    11    1
     5    11    12   ar
     6    12    13   ar
     7    13    14   ar
     8    14    15   ar
     9    15    16   ar
    10     8     9   ar
    11     9    10   ar
    12    10     1    1
    13     1     2   am
    14     2     3    2
    15     2    17    1
    16    17    24    1
    17    24    25    1
    18    25    26   ar
    19    26    27   ar
    20    27    28   ar
    21    28    29   ar
    22    29    30   ar
    23    17    18    1
    24    18    20    1
    25    20    21    1
    26    21    22   ar
    27    21    23   ar
    28    10     6   ar
    29    30    25   ar
    30    16    11   ar
    31     1     4    1
    32    18    19    1
@<TRIPOS>MOLECULE
*****
 30 32 0 0 0
SMALL
GASTEIGER

@<TRIPOS>ATOM
      1 N         142.7171  140.6785  163.9241 N.am    1  UNL1       -0.2684
      2 C         143.7101  139.6149  163.5597 C.2     1  UNL1        0.2418
      3 O         144.7824  139.2248  164.5334 O.2     1  UNL1       -0.2733
      4 H         142.0133  140.9345  163.2850 H       1  UNL1        0.1563
      5 C         144.8564  142.9872  164.7859 C.3     1  UNL1        0.1552
      6 N         143.7797  142.4131  165.6582 N.ar    1  UNL1       -0.2356
      7 N         143.4972  142.7993  167.0798 N.ar    1  UNL1       -0.1681
      8 C         142.3393  141.9768  167.5623 C.ar    1  UNL1        0.1038
      9 C         141.9062  141.0822  166.4389 C.ar    1  UNL1        0.0549
     10 C         142.7963  141.3518  165.2621 C.ar    1  UNL1        0.1327
     11 C         141.7228  142.0382  168.9285 C.ar    1  UNL1        0.0225
     12 C         142.2671  141.1854  170.0359 C.ar    1  UNL1        0.0222
     13 C         141.6506  141.2467  171.4019 C.ar    1  UNL1        0.0989
     14 N         140.4899  142.1609  171.6606 N.ar    1  UNL1       -0.2423
     15 C         139.9456  143.0137  170.5531 C.ar    1  UNL1        0.0989
     16 C         140.5621  142.9523  169.1871 C.ar    1  UNL1        0.0222
     17 C         143.6309  138.9415  162.2217 C.3     1  UNL1        0.1365
     18 N         144.4153  139.4814  161.0628 N.3     1  UNL1       -0.2863
     19 H         144.7808  138.6764  160.5541 H       1  UNL1        0.1240
     20 C         143.7473  140.3657  160.0519 C.3     1  UNL1        0.1113
     21 C         143.7808  141.8559  160.2203 C.2     1  UNL1        0.0663
     22 O         143.5429  142.4636  161.5708 O.co2   1  UNL1       -0.5477
     23 O         144.0524  142.7383  159.0381 O.co2   1  UNL1       -0.5477
     24 C         142.7672  137.7283  162.0426 C.3     1  UNL1        0.0514
     25 C         141.2733  137.8613  162.0641 C.ar    1  UNL1       -0.0203
     26 C         140.5050  137.4920  163.2983 C.ar    1  UNL1       -0.0042
     27 C         139.0112  137.6251  163.3198 C.ar    1  UNL1       -0.0003
     28 C         138.2854  138.1274  162.1070 C.ar    1  UNL1       -0.0000
     29 C         139.0536  138.4967  160.8727 C.ar    1  UNL1       -0.0003
     30 C         140.5476  138.3637  160.8513 C.ar    1  UNL1       -0.0042
@<TRIPOS>UNITY_ATOM_ATTR
22 1
charge -1
@<TRIPOS>BOND
     1     5     6    1
     2     6     7   ar
     3     7     8   ar
     4     8    11    1
     5    11    12   ar
     6    12    13   ar
     7    13    14   ar
     8    14    15   ar
     9    15    16   ar
    10     8     9   ar
    11     9    10   ar
    12    10     1    1
    13     1     2   am
    14     2     3    2
    15     2    17    1
    16    17    24    1
    17    24    25    1
    18    25    26   ar
    19    26    27   ar
    20    27    28   ar
    21    28    29   ar
    22    29    30   ar
    23    17    18    1
    24    18    20    1
    25    20    21    1
    26    21    22   ar
    27    21    23   ar
    28    10     6   ar
    29    30    25   ar
    30    16    11   ar
    31     1     4    1
    32    18    19    1
@<TRIPOS>MOLECULE
*****
 30 32 0 0 0
SMALL
GASTEIGER

@<TRIPOS>ATOM
      1 N         141.0441  144.0582  164.6124 N.am    1  UNL1       -0.2684
      2 C         140.8039  142.7422  165.2908 C.2     1  UNL1        0.2418
      3 O         140.0927  141.6412  164.5614 O.2     1  UNL1       -0.2733
      4 H         141.5108  144.7809  165.0911 H       1  UNL1        0.1563
      5 C         137.9380  144.3324  163.6495 C.3     1  UNL1        0.1552
      6 N         139.1454  144.3993  162.7620 N.ar    1  UNL1       -0.2356
      7 N         139.1372  144.6040  161.2761 N.ar    1  UNL1       -0.1681
      8 C         140.5597  144.6045  160.8003 C.ar    1  UNL1        0.1038
      9 C         141.4472  144.4001  161.9921 C.ar    1  UNL1        0.0549
     10 C         140.5731  144.2733  163.2046 C.ar    1  UNL1        0.1327
     11 C         141.0149  144.7787  159.3816 C.ar    1  UNL1        0.0225
     12 C         142.1663  143.9720  158.8589 C.ar    1  UNL1        0.0222
     13 C         142.6214  144.1463  157.4403 C.ar    1  UNL1        0.0989
     14 N         141.9250  145.1273  156.5444 N.ar    1  UNL1       -0.2423
     15 C         140.7736  145.9340  157.0671 C.ar    1  UNL1        0.0989
     16 C         140.3185  145.7597  158.4857 C.ar    1  UNL1        0.0222
     17 C         141.2748  142.5271  166.6987 C.3     1  UNL1        0.1365
     18 N         140.3323  142.7410  167.8457 N.3     1  UNL1       -0.2863
     19 H         139.4460  142.3099  167.5828 H       1  UNL1        0.1240
     20 C         140.6796  142.2205  169.2089 C.3     1  UNL1        0.1113
     21 C         140.3218  143.0162  170.4292 C.2     1  UNL1        0.0663
     22 O         139.9896  144.4735  170.3035 O.co2   1  UNL1       -0.5477
     23 O         140.2963  142.3545  171.7751 O.co2   1  UNL1       -0.5477
     24 C         142.6883  142.0981  166.9594 C.3     1  UNL1        0.0514
     25 C         143.5617  141.6615  165.8208 C.ar    1  UNL1       -0.0203
     26 C         144.4265  142.6618  165.1125 C.ar    1  UNL1       -0.0042
     27 C         145.2998  142.2252  163.9739 C.ar    1  UNL1       -0.0003
     28 C         145.3086  140.7883  163.5435 C.ar    1  UNL1       -0.0000
     29 C         144.4439  139.7880  164.2518 C.ar    1  UNL1       -0.0003
     30 C         143.5704  140.2246  165.3905 C.ar    1  UNL1       -0.0042
@<TRIPOS>UNITY_ATOM_ATTR
22 1
charge -1
@<TRIPOS>BOND
     1     5     6    1
     2     6     7   ar
     3     7     8   ar
     4     8    11    1
     5    11    12   ar
     6    12    13   ar
     7    13    14   ar
     8    14    15   ar
     9    15    16   ar
    10     8     9   ar
    11     9    10   ar
    12    10     1    1
    13     1     2   am
    14     2     3    2
    15     2    17    1
    16    17    24    1
    17    24    25    1
    18    25    26   ar
    19    26    27   ar
    20    27    28   ar
    21    28    29   ar
    22    29    30   ar
    23    17    18    1
    24    18    20    1
    25    20    21    1
    26    21    22   ar
    27    21    23   ar
    28    10     6   ar
    29    30    25   ar
    30    16    11   ar
    31     1     4    1
    32    18    19    1
@<TRIPOS>MOLECULE
*****
 30 32 0 0 0
SMALL
GASTEIGER

@<TRIPOS>ATOM
      1 N         139.0111  140.4605  164.2517 N.am    1  UNL1       -0.2684
      2 C         138.1686  141.5299  163.6220 C.2     1  UNL1        0.2418
      3 O         137.7034  142.6974  164.4409 O.2     1  UNL1       -0.2733
      4 H         139.3164  139.6942  163.7142 H       1  UNL1        0.1563
      5 C         137.9243  138.5344  166.6515 C.3     1  UNL1        0.1552
      6 N         138.8888  139.6731  166.8032 N.ar    1  UNL1       -0.2356
      7 N         139.5231  140.1266  168.0847 N.ar    1  UNL1       -0.1681
      8 C         140.4146  141.2921  167.7736 C.ar    1  UNL1        0.1038
      9 C         140.3313  141.5590  166.2999 C.ar    1  UNL1        0.0549
     10 C         139.3883  140.5585  165.7002 C.ar    1  UNL1        0.1327
     11 C         141.2438  142.0565  168.7626 C.ar    1  UNL1        0.0225
     12 C         142.6582  141.6390  169.0370 C.ar    1  UNL1        0.0222
     13 C         143.4873  142.4034  170.0260 C.ar    1  UNL1        0.0989
     14 N         142.9021  143.5852  170.7406 N.ar    1  UNL1       -0.2423
     15 C         141.4878  144.0027  170.4663 C.ar    1  UNL1        0.0989
     16 C         140.6586  143.2383  169.4773 C.ar    1  UNL1        0.0222
     17 C         137.7914  141.4319  162.1735 C.3     1  UNL1        0.1365
     18 N         137.0131  140.2486  161.6797 N.3     1  UNL1       -0.2863
     19 H         136.2679  140.6131  161.0863 H       1  UNL1        0.1240
     20 C         137.7028  139.1714  160.8961 C.3     1  UNL1        0.1113
     21 C         138.6794  138.2578  161.5758 C.2     1  UNL1        0.0663
     22 O         138.4318  137.8108  162.9861 O.co2   1  UNL1       -0.5477
     23 O         139.9035  137.7913  160.8452 O.co2   1  UNL1       -0.5477
     24 C         138.1924  142.5172  161.2190 C.3     1  UNL1        0.0514
     25 C         139.4581  143.2884  161.4491 C.ar    1  UNL1       -0.0203
     26 C         140.7826  142.6786  161.0969 C.ar    1  UNL1       -0.0042
     27 C         142.0483  143.4498  161.3270 C.ar    1  UNL1       -0.0003
     28 C         141.9897  144.8309  161.9093 C.ar    1  UNL1       -0.0000
     29 C         140.6653  145.4408  162.2614 C.ar    1  UNL1       -0.0003
     30 C         139.3995  144.6696  162.0313 C.ar    1  UNL1       -0.0042
@<TRIPOS>UNITY_ATOM_ATTR
22 1
charge -1
@<TRIPOS>BOND
     1     5     6    1
     2     6     7   ar
     3     7     8   ar
     4     8    11    1
     5    11    12   ar
     6    12    13   ar
     7    13    14   ar
     8    14    15   ar
     9    15    16   ar
    10     8     9   ar
    11     9    10   ar
    12    10     1    1
    13     1     2   am
    14     2     3    2
    15     2    17    1
    16    17    24    1
    17    24    25    1
    18    25    26   ar
    19    26    27   ar
    20    27    28   ar
    21    28    29   ar
    22    29    30   ar
    23    17    18    1
    24    18    20    1
    25    20    21    1
    26    21    22   ar
    27    21    23   ar
    28    10     6   ar
    29    30    25   ar
    30    16    11   ar
    31     1     4    1
    32    18    19    1
@<TRIPOS>MOLECULE
*****
 30 32 0 0 0
SMALL
GASTEIGER

@<TRIPOS>ATOM
      1 N         141.7679  140.1861  163.8031 N.am    1  UNL1       -0.2684
      2 C         141.6335  138.6948  163.7148 C.2     1  UNL1        0.2418
      3 O         141.8392  137.8496  164.9369 O.2     1  UNL1       -0.2733
      4 H         141.6330  140.7408  163.0010 H       1  UNL1        0.1563
      5 C         144.4626  141.9096  164.4497 C.3     1  UNL1        0.1552
      6 N         143.3466  141.6245  165.4106 N.ar    1  UNL1       -0.2356
      7 N         143.2732  142.0816  166.8373 N.ar    1  UNL1       -0.1681
      8 C         141.9893  141.5718  167.4219 C.ar    1  UNL1        0.1038
      9 C         141.2691  140.7998  166.3564 C.ar    1  UNL1        0.0549
     10 C         142.1080  140.8323  165.1134 C.ar    1  UNL1        0.1327
     11 C         141.5097  141.7950  168.8256 C.ar    1  UNL1        0.0225
     12 C         140.4543  142.8242  169.1029 C.ar    1  UNL1        0.0222
     13 C         139.9748  143.0473  170.5065 C.ar    1  UNL1        0.0989
     14 N         140.5507  142.2414  171.6329 N.ar    1  UNL1       -0.2423
     15 C         141.6061  141.2122  171.3556 C.ar    1  UNL1        0.0989
     16 C         142.0856  140.9891  169.9520 C.ar    1  UNL1        0.0222
     17 C         141.2935  138.0486  162.4046 C.3     1  UNL1        0.1365
     18 N         142.3346  137.2639  161.6628 N.3     1  UNL1       -0.2863
     19 H         141.9153  136.9822  160.7767 H       1  UNL1        0.1240
     20 C         143.6563  137.8933  161.3357 C.3     1  UNL1        0.1113
     21 C         143.7040  139.1855  160.5753 C.2     1  UNL1        0.0663
     22 O         143.5435  140.4888  161.3003 O.co2   1  UNL1       -0.5477
     23 O         143.9120  139.1743  159.0898 O.co2   1  UNL1       -0.5477
     24 C         139.9123  138.1870  161.8361 C.3     1  UNL1        0.0514
     25 C         139.2113  139.5122  161.8833 C.ar    1  UNL1       -0.0203
     26 C         139.5425  140.5723  160.8751 C.ar    1  UNL1       -0.0042
     27 C         138.8415  141.8975  160.9222 C.ar    1  UNL1       -0.0003
     28 C         137.8091  142.1627  161.9776 C.ar    1  UNL1       -0.0000
     29 C         137.4778  141.1026  162.9858 C.ar    1  UNL1       -0.0003
     30 C         138.1789  139.7774  162.9386 C.ar    1  UNL1       -0.0042
@<TRIPOS>UNITY_ATOM_ATTR
22 1
charge -1
@<TRIPOS>BOND
     1     5     6    1
     2     6     7   ar
     3     7     8   ar
     4     8    11    1
     5    11    12   ar
     6    12    13   ar
     7    13    14   ar
     8    14    15   ar
     9    15    16   ar
    10     8     9   ar
    11     9    10   ar
    12    10     1    1
    13     1     2   am
    14     2     3    2
    15     2    17    1
    16    17    24    1
    17    24    25    1
    18    25    26   ar
    19    26    27   ar
    20    27    28   ar
    21    28    29   ar
    22    29    30   ar
    23    17    18    1
    24    18    20    1
    25    20    21    1
    26    21    22   ar
    27    21    23   ar
    28    10     6   ar
    29    30    25   ar
    30    16    11   ar
    31     1     4    1
    32    18    19    1
@<TRIPOS>MOLECULE
*****
 30 32 0 0 0
SMALL
GASTEIGER

@<TRIPOS>ATOM
      1 N         141.6143  142.9210  163.6668 N.am    1  UNL1       -0.2684
      2 C         141.5222  144.3004  163.0848 C.2     1  UNL1        0.2418
      3 O         141.8673  145.4937  163.9255 O.2     1  UNL1       -0.2733
      4 H         141.3878  142.1378  163.1150 H       1  UNL1        0.1563
      5 C         144.6954  142.6452  164.7063 C.3     1  UNL1        0.1552
      6 N         143.4677  142.6082  165.5674 N.ar    1  UNL1       -0.2356
      7 N         143.4406  142.4378  167.0574 N.ar    1  UNL1       -0.1681
      8 C         142.0077  142.4593  167.5005 C.ar    1  UNL1        0.1038
      9 C         141.1492  142.6429  166.2843 C.ar    1  UNL1        0.0549
     10 C         142.0515  142.7349  165.0896 C.ar    1  UNL1        0.1327
     11 C         141.5192  142.3214  168.9120 C.ar    1  UNL1        0.0225
     12 C         140.3227  143.1009  169.3711 C.ar    1  UNL1        0.0222
     13 C         139.8342  142.9629  170.7826 C.ar    1  UNL1        0.0989
     14 N         140.5422  142.0455  171.7350 N.ar    1  UNL1       -0.2423
     15 C         141.7386  141.2660  171.2759 C.ar    1  UNL1        0.0989
     16 C         142.2271  141.4040  169.8645 C.ar    1  UNL1        0.0222
     17 C         141.0851  144.4864  161.6620 C.3     1  UNL1        0.1365
     18 N         142.0981  144.7997  160.6011 N.3     1  UNL1       -0.2863
     19 H         142.9576  144.3169  160.8629 H       1  UNL1        0.1240
     20 C         141.8203  144.4441  159.1705 C.3     1  UNL1        0.1113
     21 C         141.4644  145.5185  158.1861 C.2     1  UNL1        0.0663
     22 O         142.5423  146.3674  157.5800 O.co2   1  UNL1       -0.5477
     23 O         140.0304  145.7441  157.8079 O.co2   1  UNL1       -0.5477
     24 C         139.6349  144.3593  161.3002 C.3     1  UNL1        0.0514
     25 C         138.9051  143.0764  161.5673 C.ar    1  UNL1       -0.0203
     26 C         138.0354  142.9472  162.7826 C.ar    1  UNL1       -0.0042
     27 C         137.3055  141.6644  163.0497 C.ar    1  UNL1       -0.0003
     28 C         137.4452  140.5106  162.1014 C.ar    1  UNL1       -0.0000
     29 C         138.3148  140.6397  160.8861 C.ar    1  UNL1       -0.0003
     30 C         139.0447  141.9226  160.6190 C.ar    1  UNL1       -0.0042
@<TRIPOS>UNITY_ATOM_ATTR
22 1
charge -1
@<TRIPOS>BOND
     1     5     6    1
     2     6     7   ar
     3     7     8   ar
     4     8    11    1
     5    11    12   ar
     6    12    13   ar
     7    13    14   ar
     8    14    15   ar
     9    15    16   ar
    10     8     9   ar
    11     9    10   ar
    12    10     1    1
    13     1     2   am
    14     2     3    2
    15     2    17    1
    16    17    24    1
    17    24    25    1
    18    25    26   ar
    19    26    27   ar
    20    27    28   ar
    21    28    29   ar
    22    29    30   ar
    23    17    18    1
    24    18    20    1
    25    20    21    1
    26    21    22   ar
    27    21    23   ar
    28    10     6   ar
    29    30    25   ar
    30    16    11   ar
    31     1     4    1
    32    18    19    1
@<TRIPOS>MOLECULE
*****
 30 32 0 0 0
SMALL
GASTEIGER

@<TRIPOS>ATOM
      1 N         139.8879  141.8505  163.3926 N.am    1  UNL1       -0.2684
      2 C         138.9166  142.9043  162.9499 C.2     1  UNL1        0.2418
      3 O         137.8226  143.3515  163.8736 O.2     1  UNL1       -0.2733
      4 H         140.6059  141.5570  162.7863 H       1  UNL1        0.1563
      5 C         138.6904  138.8932  164.0782 C.3     1  UNL1        0.1552
      6 N         139.2149  139.8846  165.0741 N.ar    1  UNL1       -0.2356
      7 N         139.2811  139.6908  166.5601 N.ar    1  UNL1       -0.1681
      8 C         139.8724  140.9304  167.1633 C.ar    1  UNL1        0.1038
      9 C         140.1717  141.8902  166.0502 C.ar    1  UNL1        0.0549
     10 C         139.7654  141.2440  164.7590 C.ar    1  UNL1        0.1327
     11 C         140.1208  141.1682  168.6234 C.ar    1  UNL1        0.0225
     12 C         140.2329  140.0054  169.5643 C.ar    1  UNL1        0.0222
     13 C         140.4813  140.2433  171.0243 C.ar    1  UNL1        0.0989
     14 N         140.6176  141.6440  171.5434 N.ar    1  UNL1       -0.2423
     15 C         140.5056  142.8068  170.6025 C.ar    1  UNL1        0.0989
     16 C         140.2572  142.5689  169.1425 C.ar    1  UNL1        0.0222
     17 C         139.0391  143.5108  161.5835 C.3     1  UNL1        0.1365
     18 N         138.1505  143.0390  160.4711 N.3     1  UNL1       -0.2863
     19 H         137.9111  143.8610  159.9166 H       1  UNL1        0.1240
     20 C         138.6408  141.9965  159.5104 C.3     1  UNL1        0.1113
     21 C         138.1874  140.5736  159.6520 C.2     1  UNL1        0.0663
     22 O         138.4397  139.5924  158.5458 O.co2   1  UNL1       -0.5477
     23 O         137.4817  140.1320  160.8998 O.co2   1  UNL1       -0.5477
     24 C         140.0504  144.5892  161.3295 C.3     1  UNL1        0.0514
     25 C         141.4100  144.5052  161.9572 C.ar    1  UNL1       -0.0203
     26 C         142.4869  143.6876  161.3077 C.ar    1  UNL1       -0.0042
     27 C         143.8465  143.6036  161.9354 C.ar    1  UNL1       -0.0003
     28 C         144.1295  144.3372  163.2128 C.ar    1  UNL1       -0.0000
     29 C         143.0528  145.1549  163.8624 C.ar    1  UNL1       -0.0003
     30 C         141.6930  145.2389  163.2346 C.ar    1  UNL1       -0.0042
@<TRIPOS>UNITY_ATOM_ATTR
22 1
charge -1
@<TRIPOS>BOND
     1     5     6    1
     2     6     7   ar
     3     7     8   ar
     4     8    11    1
     5    11    12   ar
     6    12    13   ar
     7    13    14   ar
     8    14    15   ar
     9    15    16   ar
    10     8     9   ar
    11     9    10   ar
    12    10     1    1
    13     1     2   am
    14     2     3    2
    15     2    17    1
    16    17    24    1
    17    24    25    1
    18    25    26   ar
    19    26    27   ar
    20    27    28   ar
    21    28    29   ar
    22    29    30   ar
    23    17    18    1
    24    18    20    1
    25    20    21    1
    26    21    22   ar
    27    21    23   ar
    28    10     6   ar
    29    30    25   ar
    30    16    11   ar
    31     1     4    1
    32    18    19    1
@<TRIPOS>MOLECULE
*****
 30 32 0 0 0
SMALL
GASTEIGER

@<TRIPOS>ATOM
      1 N         140.6327  139.7115  163.9181 N.am    1  UNL1       -0.2684
      2 C         141.2534  138.4899  163.3079 C.2     1  UNL1        0.2418
      3 O         141.5164  137.2798  164.1544 O.2     1  UNL1       -0.2733
      4 H         140.4601  140.5057  163.3626 H       1  UNL1        0.1563
      5 C         138.3207  137.8994  165.3398 C.3     1  UNL1        0.1552
      6 N         139.2122  138.8900  166.0283 N.ar    1  UNL1       -0.2356
      7 N         139.1975  139.2217  167.4910 N.ar    1  UNL1       -0.1681
      8 C         140.2510  140.2596  167.7417 C.ar    1  UNL1        0.1038
      9 C         140.9169  140.5694  166.4337 C.ar    1  UNL1        0.0549
     10 C         140.2749  139.7230  165.3748 C.ar    1  UNL1        0.1327
     11 C         140.5808  140.8789  169.0675 C.ar    1  UNL1        0.0225
     12 C         139.8221  142.0824  169.5426 C.ar    1  UNL1        0.0222
     13 C         140.1519  142.7017  170.8683 C.ar    1  UNL1        0.0989
     14 N         141.2405  142.1174  171.7190 N.ar    1  UNL1       -0.2423
     15 C         141.9993  140.9139  171.2439 C.ar    1  UNL1        0.0989
     16 C         141.6694  140.2947  169.9181 C.ar    1  UNL1        0.0222
     17 C         141.6112  138.4784  161.8512 C.3     1  UNL1        0.1365
     18 N         140.5409  138.2893  160.8176 N.3     1  UNL1       -0.2863
     19 H         140.8143  137.4839  160.2545 H       1  UNL1        0.1240
     20 C         139.1207  138.0588  161.2420 C.3     1  UNL1        0.1113
     21 C         138.1467  139.1996  161.2529 C.2     1  UNL1        0.0663
     22 O         137.8888  139.9536  162.5237 O.co2   1  UNL1       -0.5477
     23 O         137.4305  139.5862  159.9929 O.co2   1  UNL1       -0.5477
     24 C         143.0393  138.6561  161.4283 C.3     1  UNL1        0.0514
     25 C         143.9096  139.6576  162.1278 C.ar    1  UNL1       -0.0203
     26 C         144.2174  140.9713  161.4725 C.ar    1  UNL1       -0.0042
     27 C         145.0877  141.9728  162.1720 C.ar    1  UNL1       -0.0003
     28 C         145.6503  141.6608  163.5270 C.ar    1  UNL1       -0.0000
     29 C         145.3425  140.3471  164.1825 C.ar    1  UNL1       -0.0003
     30 C         144.4722  139.3456  163.4829 C.ar    1  UNL1       -0.0042
@<TRIPOS>UNITY_ATOM_ATTR
22 1
charge -1
@<TRIPOS>BOND
     1     5     6    1
     2     6     7   ar
     3     7     8   ar
     4     8    11    1
     5    11    12   ar
     6    12    13   ar
     7    13    14   ar
     8    14    15   ar
     9    15    16   ar
    10     8     9   ar
    11     9    10   ar
    12    10     1    1
    13     1     2   am
    14     2     3    2
    15     2    17    1
    16    17    24    1
    17    24    25    1
    18    25    26   ar
    19    26    27   ar
    20    27    28   ar
    21    28    29   ar
    22    29    30   ar
    23    17    18    1
    24    18    20    1
    25    20    21    1
    26    21    22   ar
    27    21    23   ar
    28    10     6   ar
    29    30    25   ar
    30    16    11   ar
    31     1     4    1
    32    18    19    1
