@<TRIPOS>MOLECULE
*****
 23 24 0 0 0
SMALL
GASTEIGER

@<TRIPOS>ATOM
      1 C         139.2825  138.7756  165.1039 C.3     1  UNL1        0.0504
      2 C         139.5673  139.3689  166.4518 C.ar    1  UNL1        0.0417
      3 C         138.6066  139.4481  167.6010 C.ar    1  UNL1        0.0206
      4 C         139.3083  140.1153  168.7467 C.ar    1  UNL1        0.0887
      5 C         140.7027  140.4485  168.3054 C.ar    1  UNL1        0.0477
      6 C         141.7526  141.1243  169.1366 C.3     1  UNL1        0.0506
      7 N         140.8627  139.9872  166.8871 N.ar    1  UNL1       -0.3133
      8 C         142.1009  140.1208  166.0509 C.ar    1  UNL1        0.0635
      9 C         142.4300  141.4326  165.4023 C.ar    1  UNL1        0.0198
     10 C         143.6681  141.5661  164.5661 C.ar    1  UNL1        0.0311
     11 C         144.5772  140.3878  164.3787 C.ar    1  UNL1        0.1402
     12 F         145.8154  140.5213  163.5425 F       1  UNL1       -0.2042
     13 C         144.2481  139.0760  165.0274 C.ar    1  UNL1        0.0311
     14 C         143.0100  138.9425  165.8635 C.ar    1  UNL1        0.0198
     15 C         138.7191  140.3995  170.0965 C.2     1  UNL1        0.3428
     16 O         138.7276  141.7978  170.6393 O.2     1  UNL1       -0.2448
     17 O         138.1214  139.2853  170.9036 O.3     1  UNL1       -0.4353
     18 C         136.6329  139.1886  171.0618 C.3     1  UNL1        0.2925
     19 C         136.0340  138.0610  171.8491 C.2     1  UNL1        0.2641
     20 N         134.9623  138.3392  172.8611 N.am    1  UNL1       -0.3258
     21 O         136.5069  136.6553  171.6244 O.2     1  UNL1       -0.2713
     22 H         134.6520  139.2618  173.0085 H       1  UNL1        0.1451
     23 H         134.5692  137.5991  173.3778 H       1  UNL1        0.1451
@<TRIPOS>BOND
     1     1     2    1
     2     2     3   ar
     3     3     4   ar
     4     4    15    1
     5    15    16    2
     6    15    17    1
     7    17    18    1
     8    18    19    1
     9    19    20   am
    10    19    21    2
    11     4     5   ar
    12     5     6    1
    13     5     7   ar
    14     7     8    1
    15     8     9   ar
    16     9    10   ar
    17    10    11   ar
    18    11    12    1
    19    11    13   ar
    20    13    14   ar
    21     7     2   ar
    22    14     8   ar
    23    20    22    1
    24    20    23    1
@<TRIPOS>MOLECULE
*****
 23 24 0 0 0
SMALL
GASTEIGER

@<TRIPOS>ATOM
      1 C         138.4620  139.7284  164.2974 C.3     1  UNL1        0.0504
      2 C         139.0494  140.2538  165.5736 C.ar    1  UNL1        0.0417
      3 C         139.3101  139.4574  166.8177 C.ar    1  UNL1        0.0206
      4 C         139.9011  140.3793  167.8430 C.ar    1  UNL1        0.0887
      5 C         140.0056  141.7454  167.2324 C.ar    1  UNL1        0.0477
      6 C         140.5422  142.9734  167.9062 C.3     1  UNL1        0.0506
      7 N         139.4792  141.6679  165.8299 N.ar    1  UNL1       -0.3133
      8 C         139.3971  142.8049  164.8549 C.ar    1  UNL1        0.0635
      9 C         138.0614  143.2683  164.3540 C.ar    1  UNL1        0.0198
     10 C         137.9793  144.4053  163.3790 C.ar    1  UNL1        0.0311
     11 C         139.2330  145.0787  162.9050 C.ar    1  UNL1        0.1402
     12 F         139.1509  146.2157  161.9300 F       1  UNL1       -0.2042
     13 C         140.5687  144.6153  163.4059 C.ar    1  UNL1        0.0311
     14 C         140.6508  143.4784  164.3809 C.ar    1  UNL1        0.0198
     15 C         140.3148  140.0013  169.2343 C.2     1  UNL1        0.3428
     16 O         139.2739  139.6725  170.2631 O.2     1  UNL1       -0.2448
     17 O         141.7695  139.9522  169.5969 O.3     1  UNL1       -0.4353
     18 C         142.2387  140.5360  170.8965 C.3     1  UNL1        0.2925
     19 C         141.8590  141.9385  171.2691 C.2     1  UNL1        0.2641
     20 N         142.7852  143.0753  170.9530 N.am    1  UNL1       -0.3258
     21 O         140.5532  142.2042  171.9578 O.2     1  UNL1       -0.2713
     22 H         143.6423  142.9009  170.5010 H       1  UNL1        0.1451
     23 H         142.5361  143.9958  171.1976 H       1  UNL1        0.1451
@<TRIPOS>BOND
     1     1     2    1
     2     2     3   ar
     3     3     4   ar
     4     4    15    1
     5    15    16    2
     6    15    17    1
     7    17    18    1
     8    18    19    1
     9    19    20   am
    10    19    21    2
    11     4     5   ar
    12     5     6    1
    13     5     7   ar
    14     7     8    1
    15     8     9   ar
    16     9    10   ar
    17    10    11   ar
    18    11    12    1
    19    11    13   ar
    20    13    14   ar
    21     7     2   ar
    22    14     8   ar
    23    20    22    1
    24    20    23    1
@<TRIPOS>MOLECULE
*****
 23 24 0 0 0
SMALL
GASTEIGER

@<TRIPOS>ATOM
      1 C         138.4532  138.3441  165.4706 C.3     1  UNL1        0.0504
      2 C         138.7158  139.7958  165.1993 C.ar    1  UNL1        0.0417
      3 C         138.0863  140.6178  164.1140 C.ar    1  UNL1        0.0206
      4 C         138.6354  142.0104  164.2096 C.ar    1  UNL1        0.0887
      5 C         139.6043  142.0490  165.3540 C.ar    1  UNL1        0.0477
      6 C         140.3862  143.2462  165.8072 C.3     1  UNL1        0.0506
      7 N         139.6540  140.6803  165.9657 N.ar    1  UNL1       -0.3133
      8 C         140.4944  140.2685  167.1381 C.ar    1  UNL1        0.0635
      9 C         141.9045  139.8042  166.9238 C.ar    1  UNL1        0.0198
     10 C         142.7448  139.3924  168.0961 C.ar    1  UNL1        0.0311
     11 C         142.1749  139.4449  169.4826 C.ar    1  UNL1        0.1402
     12 F         143.0153  139.0331  170.6549 F       1  UNL1       -0.2042
     13 C         140.7648  139.9092  169.6969 C.ar    1  UNL1        0.0311
     14 C         139.9245  140.3210  168.5246 C.ar    1  UNL1        0.0198
     15 C         138.2783  143.1621  163.3174 C.2     1  UNL1        0.3428
     16 O         137.3789  144.2512  163.8223 O.2     1  UNL1       -0.2448
     17 O         138.8207  143.2248  161.9203 O.3     1  UNL1       -0.4353
     18 C         140.0570  144.0234  161.6308 C.3     1  UNL1        0.2925
     19 C         140.1145  145.4765  161.9988 C.2     1  UNL1        0.2641
     20 N         141.0969  145.9512  163.0280 N.am    1  UNL1       -0.3258
     21 O         139.1894  146.4547  161.3374 O.2     1  UNL1       -0.2713
     22 H         141.7040  145.3091  163.4620 H       1  UNL1        0.1451
     23 H         141.1347  146.9049  163.2695 H       1  UNL1        0.1451
@<TRIPOS>BOND
     1     1     2    1
     2     2     3   ar
     3     3     4   ar
     4     4    15    1
     5    15    16    2
     6    15    17    1
     7    17    18    1
     8    18    19    1
     9    19    20   am
    10    19    21    2
    11     4     5   ar
    12     5     6    1
    13     5     7   ar
    14     7     8    1
    15     8     9   ar
    16     9    10   ar
    17    10    11   ar
    18    11    12    1
    19    11    13   ar
    20    13    14   ar
    21     7     2   ar
    22    14     8   ar
    23    20    22    1
    24    20    23    1
@<TRIPOS>MOLECULE
*****
 23 24 0 0 0
SMALL
GASTEIGER

@<TRIPOS>ATOM
      1 C         139.0632  139.8869  165.0123 C.3     1  UNL1        0.0504
      2 C         139.4502  140.4207  166.3596 C.ar    1  UNL1        0.0417
      3 C         139.3952  139.6671  167.6554 C.ar    1  UNL1        0.0206
      4 C         139.8712  140.5824  168.7444 C.ar    1  UNL1        0.0887
      5 C         140.2203  141.9015  168.1216 C.ar    1  UNL1        0.0477
      6 C         140.7386  143.1086  168.8455 C.3     1  UNL1        0.0506
      7 N         139.9601  141.8016  166.6477 N.ar    1  UNL1       -0.3133
      8 C         140.1726  142.8913  165.6389 C.ar    1  UNL1        0.0635
      9 C         141.5370  143.1216  165.0598 C.ar    1  UNL1        0.0198
     10 C         141.7494  144.2112  164.0512 C.ar    1  UNL1        0.0311
     11 C         140.5975  145.0706  163.6216 C.ar    1  UNL1        0.1402
     12 F         140.8100  146.1603  162.6129 F       1  UNL1       -0.2042
     13 C         139.2331  144.8403  164.2007 C.ar    1  UNL1        0.0311
     14 C         139.0207  143.7507  165.2094 C.ar    1  UNL1        0.0198
     15 C         139.9790  140.2388  170.2005 C.2     1  UNL1        0.3428
     16 O         138.8223  139.5965  170.9072 O.2     1  UNL1       -0.2448
     17 O         141.2436  140.5375  170.9499 O.3     1  UNL1       -0.4353
     18 C         142.5742  140.3199  170.2926 C.3     1  UNL1        0.2925
     19 C         142.8482  139.0404  169.5593 C.2     1  UNL1        0.2641
     20 N         142.9423  139.0392  168.0622 N.am    1  UNL1       -0.3258
     21 O         143.0282  137.7620  170.3232 O.2     1  UNL1       -0.2713
     22 H         142.8242  139.8783  167.5610 H       1  UNL1        0.1451
     23 H         143.1221  138.1994  167.5810 H       1  UNL1        0.1451
@<TRIPOS>BOND
     1     1     2    1
     2     2     3   ar
     3     3     4   ar
     4     4    15    1
     5    15    16    2
     6    15    17    1
     7    17    18    1
     8    18    19    1
     9    19    20   am
    10    19    21    2
    11     4     5   ar
    12     5     6    1
    13     5     7   ar
    14     7     8    1
    15     8     9   ar
    16     9    10   ar
    17    10    11   ar
    18    11    12    1
    19    11    13   ar
    20    13    14   ar
    21     7     2   ar
    22    14     8   ar
    23    20    22    1
    24    20    23    1
@<TRIPOS>MOLECULE
*****
 23 24 0 0 0
SMALL
GASTEIGER

@<TRIPOS>ATOM
      1 C         143.2512  139.0131  167.0992 C.3     1  UNL1        0.0504
      2 C         142.0396  138.9320  166.2187 C.ar    1  UNL1        0.0417
      3 C         141.9244  138.1433  164.9480 C.ar    1  UNL1        0.0206
      4 C         140.5440  138.3492  164.3981 C.ar    1  UNL1        0.0887
      5 C         139.8062  139.2652  165.3290 C.ar    1  UNL1        0.0477
      6 C         138.3923  139.7379  165.1637 C.3     1  UNL1        0.0506
      7 N         140.7305  139.6254  166.4541 N.ar    1  UNL1       -0.3133
      8 C         140.4031  140.5217  167.6116 C.ar    1  UNL1        0.0635
      9 C         139.6050  139.9937  168.7667 C.ar    1  UNL1        0.0198
     10 C         139.2777  140.8899  169.9240 C.ar    1  UNL1        0.0311
     11 C         139.7483  142.3142  169.9263 C.ar    1  UNL1        0.1402
     12 F         139.4209  143.2104  171.0837 F       1  UNL1       -0.2042
     13 C         140.5464  142.8422  168.7712 C.ar    1  UNL1        0.0311
     14 C         140.8738  141.9459  167.6138 C.ar    1  UNL1        0.0198
     15 C         139.9976  137.7451  163.1386 C.2     1  UNL1        0.3428
     16 O         140.9283  137.3546  162.0290 O.2     1  UNL1       -0.2448
     17 O         138.5204  137.5317  162.9886 O.3     1  UNL1       -0.4353
     18 C         137.7939  138.1147  161.8129 C.3     1  UNL1        0.2925
     19 C         138.0870  139.5177  161.3706 C.2     1  UNL1        0.2641
     20 N         137.2810  140.6596  161.9150 N.am    1  UNL1       -0.3258
     21 O         139.1862  139.7787  160.3839 O.2     1  UNL1       -0.2713
     22 H         136.5595  140.4882  162.5626 H       1  UNL1        0.1451
     23 H         137.4733  141.5804  161.6247 H       1  UNL1        0.1451
@<TRIPOS>BOND
     1     1     2    1
     2     2     3   ar
     3     3     4   ar
     4     4    15    1
     5    15    16    2
     6    15    17    1
     7    17    18    1
     8    18    19    1
     9    19    20   am
    10    19    21    2
    11     4     5   ar
    12     5     6    1
    13     5     7   ar
    14     7     8    1
    15     8     9   ar
    16     9    10   ar
    17    10    11   ar
    18    11    12    1
    19    11    13   ar
    20    13    14   ar
    21     7     2   ar
    22    14     8   ar
    23    20    22    1
    24    20    23    1
@<TRIPOS>MOLECULE
*****
 23 24 0 0 0
SMALL
GASTEIGER

@<TRIPOS>ATOM
      1 C         138.5113  144.6085  165.3940 C.3     1  UNL1        0.0504
      2 C         139.8797  144.1832  164.9506 C.ar    1  UNL1        0.0417
      3 C         140.6275  144.7162  163.7646 C.ar    1  UNL1        0.0206
      4 C         141.9505  144.0126  163.6963 C.ar    1  UNL1        0.0887
      5 C         142.0203  143.0447  164.8401 C.ar    1  UNL1        0.0477
      6 C         143.1684  142.1317  165.1536 C.3     1  UNL1        0.0506
      7 N         140.7405  143.1501  165.6153 N.ar    1  UNL1       -0.3133
      8 C         140.3840  142.3610  166.8402 C.ar    1  UNL1        0.0635
      9 C         140.5436  142.9738  168.1999 C.ar    1  UNL1        0.0198
     10 C         140.1872  142.1847  169.4247 C.ar    1  UNL1        0.0311
     11 C         139.6712  140.7827  169.2898 C.ar    1  UNL1        0.1402
     12 F         139.3147  139.9936  170.5147 F       1  UNL1       -0.2042
     13 C         139.5116  140.1699  167.9301 C.ar    1  UNL1        0.0311
     14 C         139.8681  140.9590  166.7053 C.ar    1  UNL1        0.0198
     15 C         143.0165  144.2374  162.6652 C.2     1  UNL1        0.3428
     16 O         144.0561  145.2972  162.8800 O.2     1  UNL1       -0.2448
     17 O         143.0430  143.4024  161.4194 O.3     1  UNL1       -0.4353
     18 C         141.8076  143.2698  160.5790 C.3     1  UNL1        0.2925
     19 C         141.0962  144.4974  160.0923 C.2     1  UNL1        0.2641
     20 N         141.8721  145.6086  159.4496 N.am    1  UNL1       -0.3258
     21 O         139.6089  144.6137  160.2484 O.2     1  UNL1       -0.2713
     22 H         142.8483  145.5322  159.3473 H       1  UNL1        0.1451
     23 H         141.4052  146.4144  159.1302 H       1  UNL1        0.1451
@<TRIPOS>BOND
     1     1     2    1
     2     2     3   ar
     3     3     4   ar
     4     4    15    1
     5    15    16    2
     6    15    17    1
     7    17    18    1
     8    18    19    1
     9    19    20   am
    10    19    21    2
    11     4     5   ar
    12     5     6    1
    13     5     7   ar
    14     7     8    1
    15     8     9   ar
    16     9    10   ar
    17    10    11   ar
    18    11    12    1
    19    11    13   ar
    20    13    14   ar
    21     7     2   ar
    22    14     8   ar
    23    20    22    1
    24    20    23    1
@<TRIPOS>MOLECULE
*****
 23 24 0 0 0
SMALL
GASTEIGER

@<TRIPOS>ATOM
      1 C         138.3189  144.4298  165.1055 C.3     1  UNL1        0.0504
      2 C         139.7390  144.1477  164.7135 C.ar    1  UNL1        0.0417
      3 C         140.4671  144.7466  163.5468 C.ar    1  UNL1        0.0206
      4 C         141.8584  144.1863  163.5315 C.ar    1  UNL1        0.0887
      5 C         141.9902  143.2411  164.6888 C.ar    1  UNL1        0.0477
      6 C         143.2165  142.4574  165.0518 C.3     1  UNL1        0.0506
      7 N         140.6803  143.2173  165.4193 N.ar    1  UNL1       -0.3133
      8 C         140.3668  142.4055  166.6411 C.ar    1  UNL1        0.0635
      9 C         139.8377  141.0092  166.4984 C.ar    1  UNL1        0.0198
     10 C         139.5242  140.1975  167.7202 C.ar    1  UNL1        0.0311
     11 C         139.7399  140.7820  169.0847 C.ar    1  UNL1        0.1402
     12 F         139.4264  139.9702  170.3065 F       1  UNL1       -0.2042
     13 C         140.2690  142.1783  169.2274 C.ar    1  UNL1        0.0311
     14 C         140.5824  142.9900  168.0056 C.ar    1  UNL1        0.0198
     15 C         142.9299  144.5137  162.5341 C.2     1  UNL1        0.3428
     16 O         144.1733  145.2268  162.9760 O.2     1  UNL1       -0.2448
     17 O         142.7579  144.1279  161.0948 O.3     1  UNL1       -0.4353
     18 C         143.5702  143.0074  160.5164 C.3     1  UNL1        0.2925
     19 C         144.2389  142.0190  161.4252 C.2     1  UNL1        0.2641
     20 N         145.5165  142.3848  162.1210 N.am    1  UNL1       -0.3258
     21 O         143.6300  140.6648  161.6383 O.2     1  UNL1       -0.2713
     22 H         145.9161  143.2736  161.9811 H       1  UNL1        0.1451
     23 H         145.9553  141.7361  162.7175 H       1  UNL1        0.1451
@<TRIPOS>BOND
     1     1     2    1
     2     2     3   ar
     3     3     4   ar
     4     4    15    1
     5    15    16    2
     6    15    17    1
     7    17    18    1
     8    18    19    1
     9    19    20   am
    10    19    21    2
    11     4     5   ar
    12     5     6    1
    13     5     7   ar
    14     7     8    1
    15     8     9   ar
    16     9    10   ar
    17    10    11   ar
    18    11    12    1
    19    11    13   ar
    20    13    14   ar
    21     7     2   ar
    22    14     8   ar
    23    20    22    1
    24    20    23    1
@<TRIPOS>MOLECULE
*****
 23 24 0 0 0
SMALL
GASTEIGER

@<TRIPOS>ATOM
      1 C         141.5406  137.5084  164.6395 C.3     1  UNL1        0.0504
      2 C         142.3218  138.7796  164.4854 C.ar    1  UNL1        0.0417
      3 C         143.1046  139.1920  163.2741 C.ar    1  UNL1        0.0206
      4 C         143.7240  140.5289  163.5555 C.ar    1  UNL1        0.0887
      5 C         143.3239  140.9427  164.9407 C.ar    1  UNL1        0.0477
      6 C         143.7207  142.2144  165.6301 C.3     1  UNL1        0.0506
      7 N         142.4573  139.8616  165.5153 N.ar    1  UNL1       -0.3133
      8 C         141.8354  139.8624  166.8804 C.ar    1  UNL1        0.0635
      9 C         140.3855  140.2102  167.0438 C.ar    1  UNL1        0.0198
     10 C         139.7636  140.2110  168.4088 C.ar    1  UNL1        0.0311
     11 C         140.5917  139.8640  169.6104 C.ar    1  UNL1        0.1402
     12 F         139.9698  139.8648  170.9755 F       1  UNL1       -0.2042
     13 C         142.0417  139.5162  169.4470 C.ar    1  UNL1        0.0311
     14 C         142.6635  139.5154  168.0820 C.ar    1  UNL1        0.0198
     15 C         144.5911  141.3141  162.6166 C.2     1  UNL1        0.3428
     16 O         145.9796  141.7050  163.0278 O.2     1  UNL1       -0.2448
     17 O         144.0697  141.7083  161.2665 O.3     1  UNL1       -0.4353
     18 C         143.5243  143.0882  161.0468 C.3     1  UNL1        0.2925
     19 C         143.1304  143.9347  162.2208 C.2     1  UNL1        0.2641
     20 N         143.9995  145.0819  162.6434 N.am    1  UNL1       -0.3258
     21 O         141.8674  143.6341  162.9720 O.2     1  UNL1       -0.2713
     22 H         144.8285  145.2792  162.1503 H       1  UNL1        0.1451
     23 H         143.7410  145.6375  163.4140 H       1  UNL1        0.1451
@<TRIPOS>BOND
     1     1     2    1
     2     2     3   ar
     3     3     4   ar
     4     4    15    1
     5    15    16    2
     6    15    17    1
     7    17    18    1
     8    18    19    1
     9    19    20   am
    10    19    21    2
    11     4     5   ar
    12     5     6    1
    13     5     7   ar
    14     7     8    1
    15     8     9   ar
    16     9    10   ar
    17    10    11   ar
    18    11    12    1
    19    11    13   ar
    20    13    14   ar
    21     7     2   ar
    22    14     8   ar
    23    20    22    1
    24    20    23    1
@<TRIPOS>MOLECULE
*****
 23 24 0 0 0
SMALL
GASTEIGER

@<TRIPOS>ATOM
      1 C         143.2292  138.8633  167.0531 C.3     1  UNL1        0.0504
      2 C         142.0335  138.8344  166.1478 C.ar    1  UNL1        0.0417
      3 C         141.9087  138.0476  164.8769 C.ar    1  UNL1        0.0206
      4 C         140.5508  138.3141  164.2981 C.ar    1  UNL1        0.0887
      5 C         139.8363  139.2657  165.2114 C.ar    1  UNL1        0.0477
      6 C         138.4491  139.8016  165.0158 C.3     1  UNL1        0.0506
      7 N         140.7527  139.5872  166.3546 N.ar    1  UNL1       -0.3133
      8 C         140.4427  140.5012  167.5029 C.ar    1  UNL1        0.0635
      9 C         140.9162  141.9242  167.4779 C.ar    1  UNL1        0.0198
     10 C         140.6062  142.8381  168.6262 C.ar    1  UNL1        0.0311
     11 C         139.8226  142.3290  169.7995 C.ar    1  UNL1        0.1402
     12 F         139.5126  143.2429  170.9479 F       1  UNL1       -0.2042
     13 C         139.3491  140.9059  169.8246 C.ar    1  UNL1        0.0311
     14 C         139.6591  139.9920  168.6763 C.ar    1  UNL1        0.0198
     15 C         140.0034  137.7314  163.0289 C.2     1  UNL1        0.3428
     16 O         138.5334  137.4619  162.9003 O.2     1  UNL1       -0.2448
     17 O         140.9260  137.4182  161.8884 O.3     1  UNL1       -0.4353
     18 C         141.7956  138.4948  161.3099 C.3     1  UNL1        0.2925
     19 C         143.1018  138.1378  160.6644 C.2     1  UNL1        0.2641
     20 N         144.3339  137.9756  161.5043 N.am    1  UNL1       -0.3258
     21 O         143.1756  137.9430  159.1789 O.2     1  UNL1       -0.2713
     22 H         144.2854  138.1035  162.4792 H       1  UNL1        0.1451
     23 H         145.1911  137.7413  161.0806 H       1  UNL1        0.1451
@<TRIPOS>BOND
     1     1     2    1
     2     2     3   ar
     3     3     4   ar
     4     4    15    1
     5    15    16    2
     6    15    17    1
     7    17    18    1
     8    18    19    1
     9    19    20   am
    10    19    21    2
    11     4     5   ar
    12     5     6    1
    13     5     7   ar
    14     7     8    1
    15     8     9   ar
    16     9    10   ar
    17    10    11   ar
    18    11    12    1
    19    11    13   ar
    20    13    14   ar
    21     7     2   ar
    22    14     8   ar
    23    20    22    1
    24    20    23    1
