@<TRIPOS>MOLECULE
*****
 27 29 0 0 0
SMALL
GASTEIGER

@<TRIPOS>ATOM
      1 N         139.4913  140.3362  166.0164 N.pl3   1  UNL1       -0.3034
      2 C         141.2057  142.1357  170.6751 C.2     1  UNL1        0.2257
      3 O         140.8971  141.9358  172.1293 O.2     1  UNL1       -0.2749
      4 N         140.4329  141.3818  169.6339 N.am    1  UNL1       -0.2778
      5 C         139.3292  140.3997  169.8940 C.3     1  UNL1        0.0952
      6 C         138.8422  139.8885  168.5705 C.3     1  UNL1        0.0430
      7 C         139.6449  140.5547  167.4925 C.3     1  UNL1        0.0946
      8 C         140.6279  141.4775  168.1497 C.3     1  UNL1        0.1131
      9 C         143.6509  142.5717  169.9129 C.3     1  UNL1        0.0101
     10 C         142.2872  143.0896  170.2622 C.3     1  UNL1        0.0853
     11 C         139.4374  141.5115  165.0860 C.ar    1  UNL1        0.0490
     12 C         138.1154  142.0064  164.5786 C.ar    1  UNL1        0.0153
     13 C         138.0615  143.1817  163.6481 C.ar    1  UNL1        0.0124
     14 C         139.3295  143.8621  163.2250 C.ar    1  UNL1        0.0791
     15 C         140.6516  143.3673  163.7324 C.ar    1  UNL1        0.0685
     16 CL        141.9196  144.0478  163.3094 Cl      1  UNL1       -0.0815
     17 C         140.7055  142.1920  164.6629 C.ar    1  UNL1        0.0266
     18 C         139.2756  145.0374  162.2946 C.1     1  UNL1        0.1013
     19 N         139.2217  146.2128  161.3641 N.1     1  UNL1       -0.1908
     20 C         139.3918  138.9426  165.4708 C.3     1  UNL1        0.1182
     21 C         140.0593  138.5956  164.1731 C.ar    1  UNL1        0.0038
     22 C         139.2564  138.5437  162.9072 C.ar    1  UNL1       -0.0021
     23 C         139.9239  138.1968  161.6094 C.ar    1  UNL1       -0.0002
     24 C         141.3943  137.9018  161.5777 C.ar    1  UNL1        0.0005
     25 C         142.1972  137.9538  162.8437 C.ar    1  UNL1        0.0064
     26 C         141.5297  138.3007  164.1414 C.ar    1  UNL1        0.0322
     27 BR        142.3325  138.3527  165.4074 Br      1  UNL1       -0.0493
@<TRIPOS>BOND
     1     9    10    1
     2    10     2    1
     3     2     3    2
     4     2     4   am
     5     4     5    1
     6     5     6    1
     7     6     7    1
     8     7     1    1
     9     1    20    1
    10    20    21    1
    11    21    22   ar
    12    22    23   ar
    13    23    24   ar
    14    24    25   ar
    15    25    26   ar
    16    26    27    1
    17     1    11    1
    18    11    12   ar
    19    12    13   ar
    20    13    14   ar
    21    14    18    1
    22    18    19    3
    23    14    15   ar
    24    15    16    1
    25    15    17   ar
    26     7     8    1
    27     8     4    1
    28    26    21   ar
    29    17    11   ar
@<TRIPOS>MOLECULE
*****
 27 29 0 0 0
SMALL
GASTEIGER

@<TRIPOS>ATOM
      1 N         139.7250  140.4123  165.8774 N.pl3   1  UNL1       -0.3034
      2 C         141.2417  142.1139  170.6403 C.2     1  UNL1        0.2257
      3 O         140.8597  141.8984  172.0747 O.2     1  UNL1       -0.2749
      4 N         140.5077  141.3888  169.5516 N.am    1  UNL1       -0.2778
      5 C         139.3764  140.4225  169.7432 C.3     1  UNL1        0.0952
      6 C         138.9455  139.9391  168.3901 C.3     1  UNL1        0.0430
      7 C         139.8105  140.6066  167.3624 C.3     1  UNL1        0.0946
      8 C         140.7759  141.5026  168.0802 C.3     1  UNL1        0.1131
      9 C         143.7011  142.5134  169.9040 C.3     1  UNL1        0.0101
     10 C         142.3578  143.0546  170.2946 C.3     1  UNL1        0.0853
     11 C         139.6322  141.6026  164.9694 C.ar    1  UNL1        0.0490
     12 C         138.3078  142.0024  164.3899 C.ar    1  UNL1        0.0153
     13 C         138.2150  143.1927  163.4818 C.ar    1  UNL1        0.0124
     14 C         139.4467  143.9833  163.1533 C.ar    1  UNL1        0.0791
     15 C         140.7712  143.5835  163.7329 C.ar    1  UNL1        0.0685
     16 CL        142.0029  144.3740  163.4044 Cl      1  UNL1       -0.0815
     17 C         140.8640  142.3931  164.6409 C.ar    1  UNL1        0.0266
     18 C         139.3539  145.1736  162.2453 C.1     1  UNL1        0.1013
     19 N         139.2612  146.3639  161.3372 N.1     1  UNL1       -0.1908
     20 C         139.7322  139.0277  165.3006 C.3     1  UNL1        0.1182
     21 C         140.6213  138.7049  164.1364 C.ar    1  UNL1        0.0038
     22 C         142.1115  138.7103  164.3066 C.ar    1  UNL1       -0.0021
     23 C         143.0006  138.3874  163.1424 C.ar    1  UNL1       -0.0002
     24 C         142.3994  138.0592  161.8080 C.ar    1  UNL1        0.0005
     25 C         140.9090  138.0537  161.6377 C.ar    1  UNL1        0.0064
     26 C         140.0200  138.3766  162.8019 C.ar    1  UNL1        0.0322
     27 BR        138.5297  138.3712  162.6317 Br      1  UNL1       -0.0493
@<TRIPOS>BOND
     1     9    10    1
     2    10     2    1
     3     2     3    2
     4     2     4   am
     5     4     5    1
     6     5     6    1
     7     6     7    1
     8     7     1    1
     9     1    20    1
    10    20    21    1
    11    21    22   ar
    12    22    23   ar
    13    23    24   ar
    14    24    25   ar
    15    25    26   ar
    16    26    27    1
    17     1    11    1
    18    11    12   ar
    19    12    13   ar
    20    13    14   ar
    21    14    18    1
    22    18    19    3
    23    14    15   ar
    24    15    16    1
    25    15    17   ar
    26     7     8    1
    27     8     4    1
    28    26    21   ar
    29    17    11   ar
@<TRIPOS>MOLECULE
*****
 27 29 0 0 0
SMALL
GASTEIGER

@<TRIPOS>ATOM
      1 N         142.6194  140.4227  165.8314 N.pl3   1  UNL1       -0.3034
      2 C         140.5921  141.4912  170.5884 C.2     1  UNL1        0.2257
      3 O         140.6209  140.9063  171.9694 O.2     1  UNL1       -0.2749
      4 N         141.3507  140.8282  169.4772 N.am    1  UNL1       -0.2778
      5 C         142.1779  139.5824  169.5951 C.3     1  UNL1        0.0952
      6 C         142.7538  139.2789  168.2436 C.3     1  UNL1        0.0430
      7 C         142.2826  140.3371  167.2907 C.3     1  UNL1        0.0946
      8 C         141.4154  141.2946  168.0530 C.3     1  UNL1        0.1131
      9 C         140.5156  144.0186  169.9916 C.3     1  UNL1        0.0101
     10 C         139.8046  142.7391  170.3188 C.3     1  UNL1        0.0853
     11 C         142.1089  141.5692  165.0099 C.ar    1  UNL1        0.0490
     12 C         140.7647  141.4795  164.3505 C.ar    1  UNL1        0.0153
     13 C         140.2542  142.6260  163.5289 C.ar    1  UNL1        0.0124
     14 C         141.0880  143.8623  163.3669 C.ar    1  UNL1        0.0791
     15 C         142.4323  143.9521  164.0264 C.ar    1  UNL1        0.0685
     16 CL        143.2661  145.1884  163.8643 Cl      1  UNL1       -0.0815
     17 C         142.9428  142.8056  164.8479 C.ar    1  UNL1        0.0266
     18 C         140.5776  145.0089  162.5454 C.1     1  UNL1        0.1013
     19 N         140.0671  146.1554  161.7239 N.1     1  UNL1       -0.1908
     20 C         143.4666  139.3618  165.1938 C.3     1  UNL1        0.1182
     21 C         143.2558  138.9986  163.7537 C.ar    1  UNL1        0.0038
     22 C         144.1685  139.5513  162.6995 C.ar    1  UNL1       -0.0021
     23 C         143.9577  139.1881  161.2595 C.ar    1  UNL1       -0.0002
     24 C         142.8343  138.2722  160.8737 C.ar    1  UNL1        0.0005
     25 C         141.9215  137.7194  161.9279 C.ar    1  UNL1        0.0064
     26 C         142.1323  138.0826  163.3680 C.ar    1  UNL1        0.0322
     27 BR        141.2196  137.5299  164.4222 Br      1  UNL1       -0.0493
@<TRIPOS>BOND
     1     9    10    1
     2    10     2    1
     3     2     3    2
     4     2     4   am
     5     4     5    1
     6     5     6    1
     7     6     7    1
     8     7     1    1
     9     1    20    1
    10    20    21    1
    11    21    22   ar
    12    22    23   ar
    13    23    24   ar
    14    24    25   ar
    15    25    26   ar
    16    26    27    1
    17     1    11    1
    18    11    12   ar
    19    12    13   ar
    20    13    14   ar
    21    14    18    1
    22    18    19    3
    23    14    15   ar
    24    15    16    1
    25    15    17   ar
    26     7     8    1
    27     8     4    1
    28    26    21   ar
    29    17    11   ar
@<TRIPOS>MOLECULE
*****
 27 29 0 0 0
SMALL
GASTEIGER

@<TRIPOS>ATOM
      1 N         142.5816  141.8177  165.8405 N.pl3   1  UNL1       -0.3034
      2 C         140.4076  141.8789  170.6520 C.2     1  UNL1        0.2257
      3 O         140.8288  142.1699  172.0619 O.2     1  UNL1       -0.2749
      4 N         141.4014  141.9908  169.5342 N.am    1  UNL1       -0.2778
      5 C         142.8433  142.3808  169.6720 C.3     1  UNL1        0.0952
      6 C         143.4609  142.3634  168.3051 C.3     1  UNL1        0.0430
      7 C         142.4007  141.9627  167.3226 C.3     1  UNL1        0.0946
      8 C         141.1279  141.7324  168.0821 C.3     1  UNL1        0.1131
      9 C         138.6655  140.0405  170.0726 C.3     1  UNL1        0.0101
     10 C         138.9925  141.4759  170.3601 C.3     1  UNL1        0.0853
     11 C         141.9525  142.8097  164.9076 C.ar    1  UNL1        0.0490
     12 C         142.7960  143.8634  164.2533 C.ar    1  UNL1        0.0153
     13 C         142.1670  144.8553  163.3204 C.ar    1  UNL1        0.0124
     14 C         140.6944  144.7935  163.0418 C.ar    1  UNL1        0.0791
     15 C         139.8508  143.7398  163.6961 C.ar    1  UNL1        0.0685
     16 CL        138.3783  143.6780  163.4175 Cl      1  UNL1       -0.0815
     17 C         140.4799  142.7478  164.6290 C.ar    1  UNL1        0.0266
     18 C         140.0653  145.7855  162.1089 C.1     1  UNL1        0.1013
     19 N         139.4363  146.7774  161.1759 N.1     1  UNL1       -0.1908
     20 C         143.3916  140.6809  165.2915 C.3     1  UNL1        0.1182
     21 C         142.7097  139.5459  164.5867 C.ar    1  UNL1        0.0038
     22 C         141.8965  138.5575  165.3689 C.ar    1  UNL1       -0.0021
     23 C         141.2147  137.4225  164.6640 C.ar    1  UNL1       -0.0002
     24 C         141.3459  137.2759  163.1770 C.ar    1  UNL1        0.0005
     25 C         142.1590  138.2643  162.3948 C.ar    1  UNL1        0.0064
     26 C         142.8409  139.3993  163.0996 C.ar    1  UNL1        0.0322
     27 BR        143.6541  140.3877  162.3174 Br      1  UNL1       -0.0493
@<TRIPOS>BOND
     1     9    10    1
     2    10     2    1
     3     2     3    2
     4     2     4   am
     5     4     5    1
     6     5     6    1
     7     6     7    1
     8     7     1    1
     9     1    20    1
    10    20    21    1
    11    21    22   ar
    12    22    23   ar
    13    23    24   ar
    14    24    25   ar
    15    25    26   ar
    16    26    27    1
    17     1    11    1
    18    11    12   ar
    19    12    13   ar
    20    13    14   ar
    21    14    18    1
    22    18    19    3
    23    14    15   ar
    24    15    16    1
    25    15    17   ar
    26     7     8    1
    27     8     4    1
    28    26    21   ar
    29    17    11   ar
@<TRIPOS>MOLECULE
*****
 27 29 0 0 0
SMALL
GASTEIGER

@<TRIPOS>ATOM
      1 N         141.4627  140.3316  165.4199 N.pl3   1  UNL1       -0.3034
      2 C         141.0180  141.7375  170.4900 C.2     1  UNL1        0.2257
      3 O         141.6214  141.3567  171.8095 O.2     1  UNL1       -0.2749
      4 N         141.4602  141.0448  169.2353 N.am    1  UNL1       -0.2778
      5 C         142.4903  139.9582  169.1442 C.3     1  UNL1        0.0952
      6 C         142.6166  139.5588  167.7038 C.3     1  UNL1        0.0430
      7 C         141.6645  140.3986  166.9048 C.3     1  UNL1        0.0946
      8 C         140.9499  141.3169  167.8513 C.3     1  UNL1        0.1131
      9 C         140.3429  144.1927  169.9739 C.3     1  UNL1        0.0101
     10 C         139.9725  142.8112  170.4255 C.3     1  UNL1        0.0853
     11 C         141.0497  141.5591  164.6631 C.ar    1  UNL1        0.0490
     12 C         142.0900  142.4386  164.0353 C.ar    1  UNL1        0.0153
     13 C         141.6770  143.6660  163.2785 C.ar    1  UNL1        0.0124
     14 C         140.2237  144.0140  163.1495 C.ar    1  UNL1        0.0791
     15 C         139.1833  143.1346  163.7774 C.ar    1  UNL1        0.0685
     16 CL        137.7299  143.4826  163.6484 Cl      1  UNL1       -0.0815
     17 C         139.5963  141.9071  164.5342 C.ar    1  UNL1        0.0266
     18 C         139.8107  145.2415  162.3927 C.1     1  UNL1        0.1013
     19 N         139.3977  146.4690  161.6359 N.1     1  UNL1       -0.1908
     20 C         141.6738  139.0373  164.6919 C.3     1  UNL1        0.1182
     21 C         140.8270  138.7000  163.5006 C.ar    1  UNL1        0.0038
     22 C         141.3599  138.9183  162.1156 C.ar    1  UNL1       -0.0021
     23 C         140.5131  138.5810  160.9243 C.ar    1  UNL1       -0.0002
     24 C         139.1333  138.0255  161.1181 C.ar    1  UNL1        0.0005
     25 C         138.6003  137.8073  162.5031 C.ar    1  UNL1        0.0064
     26 C         139.4471  138.1445  163.6944 C.ar    1  UNL1        0.0322
     27 BR        138.9142  137.9263  165.0794 Br      1  UNL1       -0.0493
@<TRIPOS>BOND
     1     9    10    1
     2    10     2    1
     3     2     3    2
     4     2     4   am
     5     4     5    1
     6     5     6    1
     7     6     7    1
     8     7     1    1
     9     1    20    1
    10    20    21    1
    11    21    22   ar
    12    22    23   ar
    13    23    24   ar
    14    24    25   ar
    15    25    26   ar
    16    26    27    1
    17     1    11    1
    18    11    12   ar
    19    12    13   ar
    20    13    14   ar
    21    14    18    1
    22    18    19    3
    23    14    15   ar
    24    15    16    1
    25    15    17   ar
    26     7     8    1
    27     8     4    1
    28    26    21   ar
    29    17    11   ar
@<TRIPOS>MOLECULE
*****
 27 29 0 0 0
SMALL
GASTEIGER

@<TRIPOS>ATOM
      1 N         142.1319  139.5582  165.3995 N.pl3   1  UNL1       -0.3034
      2 C         138.0088  139.3440  162.1079 C.2     1  UNL1        0.2257
      3 O         137.1861  138.2963  161.4185 O.2     1  UNL1       -0.2749
      4 N         139.1448  138.9389  162.9997 N.am    1  UNL1       -0.2778
      5 C         139.5745  137.5327  163.2965 C.3     1  UNL1        0.0952
      6 C         140.7458  137.5936  164.2317 C.3     1  UNL1        0.0430
      7 C         141.0399  139.0374  164.5127 C.3     1  UNL1        0.0946
      8 C         140.0505  139.8688  163.7514 C.3     1  UNL1        0.1131
      9 C         137.2034  141.6254  163.0548 C.3     1  UNL1        0.0101
     10 C         137.6955  140.7969  161.9053 C.3     1  UNL1        0.0853
     11 C         141.8014  140.0907  166.7623 C.ar    1  UNL1        0.0490
     12 C         140.4454  139.8457  167.3547 C.ar    1  UNL1        0.0153
     13 C         140.1149  140.3782  168.7175 C.ar    1  UNL1        0.0124
     14 C         141.1405  141.1557  169.4879 C.ar    1  UNL1        0.0791
     15 C         142.4966  141.4008  168.8955 C.ar    1  UNL1        0.0685
     16 CL        143.5222  142.1783  169.6659 Cl      1  UNL1       -0.0815
     17 C         142.8271  140.8683  167.5327 C.ar    1  UNL1        0.0266
     18 C         140.8100  141.6882  170.8507 C.1     1  UNL1        0.1013
     19 N         140.4795  142.2207  172.2135 N.1     1  UNL1       -0.1908
     20 C         143.5543  139.5466  164.9235 C.3     1  UNL1        0.1182
     21 C         143.9957  140.5030  163.8556 C.ar    1  UNL1        0.0038
     22 C         144.3063  141.9279  164.2067 C.ar    1  UNL1       -0.0021
     23 C         144.7477  142.8843  163.1388 C.ar    1  UNL1       -0.0002
     24 C         144.8785  142.4159  161.7198 C.ar    1  UNL1        0.0005
     25 C         144.5679  140.9910  161.3687 C.ar    1  UNL1        0.0064
     26 C         144.1265  140.0346  162.4366 C.ar    1  UNL1        0.0322
     27 BR        143.8159  138.6097  162.0855 Br      1  UNL1       -0.0493
@<TRIPOS>BOND
     1     9    10    1
     2    10     2    1
     3     2     3    2
     4     2     4   am
     5     4     5    1
     6     5     6    1
     7     6     7    1
     8     7     1    1
     9     1    20    1
    10    20    21    1
    11    21    22   ar
    12    22    23   ar
    13    23    24   ar
    14    24    25   ar
    15    25    26   ar
    16    26    27    1
    17     1    11    1
    18    11    12   ar
    19    12    13   ar
    20    13    14   ar
    21    14    18    1
    22    18    19    3
    23    14    15   ar
    24    15    16    1
    25    15    17   ar
    26     7     8    1
    27     8     4    1
    28    26    21   ar
    29    17    11   ar
@<TRIPOS>MOLECULE
*****
 27 29 0 0 0
SMALL
GASTEIGER

@<TRIPOS>ATOM
      1 N         142.7788  141.2269  165.0859 N.pl3   1  UNL1       -0.3034
      2 C         139.8931  144.1080  161.7314 C.2     1  UNL1        0.2257
      3 O         140.1129  145.1942  160.7206 O.2     1  UNL1       -0.2749
      4 N         141.0556  143.5504  162.4979 N.am    1  UNL1       -0.2778
      5 C         142.4873  143.9769  162.3622 C.3     1  UNL1        0.0952
      6 C         143.3071  143.1584  163.3152 C.3     1  UNL1        0.0430
      7 C         142.3820  142.2261  164.0398 C.3     1  UNL1        0.0946
      8 C         140.9906  142.4683  163.5347 C.3     1  UNL1        0.1131
      9 C         137.7122  144.0787  163.1431 C.3     1  UNL1        0.0101
     10 C         138.5107  143.5794  161.9756 C.3     1  UNL1        0.0853
     11 C         142.3182  141.4013  166.5027 C.ar    1  UNL1        0.0490
     12 C         143.1201  142.2386  167.4544 C.ar    1  UNL1        0.0153
     13 C         142.6594  142.4131  168.8712 C.ar    1  UNL1        0.0124
     14 C         141.3968  141.7502  169.3363 C.ar    1  UNL1        0.0791
     15 C         140.5948  140.9128  168.3846 C.ar    1  UNL1        0.0685
     16 CL        139.3322  140.2500  168.8497 Cl      1  UNL1       -0.0815
     17 C         141.0555  140.7384  166.9678 C.ar    1  UNL1        0.0266
     18 C         140.9361  141.9246  170.7531 C.1     1  UNL1        0.1013
     19 N         140.4754  142.0991  172.1699 N.1     1  UNL1       -0.1908
     20 C         143.6363  140.0533  164.7151 C.3     1  UNL1        0.1182
     21 C         143.4372  139.3656  163.3970 C.ar    1  UNL1        0.0038
     22 C         144.2832  139.7448  162.2179 C.ar    1  UNL1       -0.0021
     23 C         144.0841  139.0571  160.8998 C.ar    1  UNL1       -0.0002
     24 C         143.0390  137.9902  160.7608 C.ar    1  UNL1        0.0005
     25 C         142.1928  137.6110  161.9400 C.ar    1  UNL1        0.0064
     26 C         142.3919  138.2987  163.2581 C.ar    1  UNL1        0.0322
     27 BR        141.5459  137.9196  164.4372 Br      1  UNL1       -0.0493
@<TRIPOS>BOND
     1     9    10    1
     2    10     2    1
     3     2     3    2
     4     2     4   am
     5     4     5    1
     6     5     6    1
     7     6     7    1
     8     7     1    1
     9     1    20    1
    10    20    21    1
    11    21    22   ar
    12    22    23   ar
    13    23    24   ar
    14    24    25   ar
    15    25    26   ar
    16    26    27    1
    17     1    11    1
    18    11    12   ar
    19    12    13   ar
    20    13    14   ar
    21    14    18    1
    22    18    19    3
    23    14    15   ar
    24    15    16    1
    25    15    17   ar
    26     7     8    1
    27     8     4    1
    28    26    21   ar
    29    17    11   ar
@<TRIPOS>MOLECULE
*****
 27 29 0 0 0
SMALL
GASTEIGER

@<TRIPOS>ATOM
      1 N         140.9347  139.6984  165.1041 N.pl3   1  UNL1       -0.3034
      2 C         139.0962  143.0818  161.4913 C.2     1  UNL1        0.2257
      3 O         137.9450  143.1738  160.5340 O.2     1  UNL1       -0.2749
      4 N         139.2405  141.8803  162.3775 N.am    1  UNL1       -0.2778
      5 C         138.3172  140.6988  162.4182 C.3     1  UNL1        0.0952
      6 C         138.8395  139.7375  163.4446 C.3     1  UNL1        0.0430
      7 C         140.0855  140.3251  164.0381 C.3     1  UNL1        0.0946
      8 C         140.3333  141.6494  163.3787 C.3     1  UNL1        0.1131
      9 C         139.6816  145.5591  162.0110 C.3     1  UNL1        0.0101
     10 C         140.1030  144.1914  161.5621 C.3     1  UNL1        0.0853
     11 C         140.8492  140.1922  166.5179 C.ar    1  UNL1        0.0490
     12 C         139.6342  139.8926  167.3449 C.ar    1  UNL1        0.0153
     13 C         139.5488  140.3865  168.7587 C.ar    1  UNL1        0.0124
     14 C         140.6784  141.1799  169.3455 C.ar    1  UNL1        0.0791
     15 C         141.8935  141.4795  168.5186 C.ar    1  UNL1        0.0685
     16 CL        143.0231  142.2729  169.1054 Cl      1  UNL1       -0.0815
     17 C         141.9789  140.9857  167.1048 C.ar    1  UNL1        0.0266
     18 C         140.5929  141.6737  170.7593 C.1     1  UNL1        0.1013
     19 N         140.5075  142.1675  172.1731 N.1     1  UNL1       -0.1908
     20 C         141.8692  138.5778  164.7562 C.3     1  UNL1        0.1182
     21 C         142.4926  138.5169  163.3933 C.ar    1  UNL1        0.0038
     22 C         141.8207  137.7476  162.2949 C.ar    1  UNL1       -0.0021
     23 C         142.4441  137.6867  160.9320 C.ar    1  UNL1       -0.0002
     24 C         143.7395  138.3951  160.6674 C.ar    1  UNL1        0.0005
     25 C         144.4116  139.1644  161.7659 C.ar    1  UNL1        0.0064
     26 C         143.7881  139.2254  163.1288 C.ar    1  UNL1        0.0322
     27 BR        144.4601  139.9947  164.2272 Br      1  UNL1       -0.0493
@<TRIPOS>BOND
     1     9    10    1
     2    10     2    1
     3     2     3    2
     4     2     4   am
     5     4     5    1
     6     5     6    1
     7     6     7    1
     8     7     1    1
     9     1    20    1
    10    20    21    1
    11    21    22   ar
    12    22    23   ar
    13    23    24   ar
    14    24    25   ar
    15    25    26   ar
    16    26    27    1
    17     1    11    1
    18    11    12   ar
    19    12    13   ar
    20    13    14   ar
    21    14    18    1
    22    18    19    3
    23    14    15   ar
    24    15    16    1
    25    15    17   ar
    26     7     8    1
    27     8     4    1
    28    26    21   ar
    29    17    11   ar
@<TRIPOS>MOLECULE
*****
 27 29 0 0 0
SMALL
GASTEIGER

@<TRIPOS>ATOM
      1 N         142.2177  142.1016  164.6714 N.pl3   1  UNL1       -0.3034
      2 C         140.0361  144.6247  160.5782 C.2     1  UNL1        0.2257
      3 O         139.7279  146.0361  160.1744 O.2     1  UNL1       -0.2749
      4 N         140.6958  144.3489  161.8966 N.am    1  UNL1       -0.2778
      5 C         141.1039  145.3764  162.9104 C.3     1  UNL1        0.0952
      6 C         141.7237  144.6596  164.0733 C.3     1  UNL1        0.0430
      7 C         141.6986  143.1892  163.7781 C.3     1  UNL1        0.0946
      8 C         141.0634  142.9971  162.4329 C.3     1  UNL1        0.1131
      9 C         140.7254  142.9109  158.7513 C.3     1  UNL1        0.0101
     10 C         139.6844  143.4893  159.6632 C.3     1  UNL1        0.0853
     11 C         141.9203  142.1326  166.1413 C.ar    1  UNL1        0.0490
     12 C         140.4997  142.0836  166.6203 C.ar    1  UNL1        0.0153
     13 C         140.2023  142.1146  168.0902 C.ar    1  UNL1        0.0124
     14 C         141.3255  142.1946  169.0811 C.ar    1  UNL1        0.0791
     15 C         142.7461  142.2436  168.6022 C.ar    1  UNL1        0.0685
     16 CL        143.8693  142.3236  169.5931 Cl      1  UNL1       -0.0815
     17 C         143.0436  142.2126  167.1323 C.ar    1  UNL1        0.0266
     18 C         141.0280  142.2255  170.5510 C.1     1  UNL1        0.1013
     19 N         140.7306  142.2565  172.0209 N.1     1  UNL1       -0.1908
     20 C         143.0341  140.9832  164.0948 C.3     1  UNL1        0.1182
     21 C         142.4026  139.6462  163.8429 C.ar    1  UNL1        0.0038
     22 C         141.8767  138.8368  164.9911 C.ar    1  UNL1       -0.0021
     23 C         141.2452  137.4998  164.7392 C.ar    1  UNL1       -0.0002
     24 C         141.1395  136.9721  163.3391 C.ar    1  UNL1        0.0005
     25 C         141.6654  137.7814  162.1909 C.ar    1  UNL1        0.0064
     26 C         142.2970  139.1184  162.4427 C.ar    1  UNL1        0.0322
     27 BR        142.8228  139.9278  161.2945 Br      1  UNL1       -0.0493
@<TRIPOS>BOND
     1     9    10    1
     2    10     2    1
     3     2     3    2
     4     2     4   am
     5     4     5    1
     6     5     6    1
     7     6     7    1
     8     7     1    1
     9     1    20    1
    10    20    21    1
    11    21    22   ar
    12    22    23   ar
    13    23    24   ar
    14    24    25   ar
    15    25    26   ar
    16    26    27    1
    17     1    11    1
    18    11    12   ar
    19    12    13   ar
    20    13    14   ar
    21    14    18    1
    22    18    19    3
    23    14    15   ar
    24    15    16    1
    25    15    17   ar
    26     7     8    1
    27     8     4    1
    28    26    21   ar
    29    17    11   ar
