@<TRIPOS>MOLECULE
*****
 31 34 0 0 0
SMALL
GASTEIGER

@<TRIPOS>ATOM
      1 C         141.5246  140.5514  167.7205 C.3     1  UNL1        0.2959
      2 N         140.3498  140.2895  168.6155 N.2     1  UNL1       -0.2191
      3 C         140.8720  139.9824  169.9878 C.2     1  UNL1        0.1399
      4 C         140.0422  139.6598  171.1951 C.3     1  UNL1        0.0598
      5 C         142.3695  140.0545  169.9408 C.2     1  UNL1        0.3289
      6 N         143.3002  139.8168  171.0929 N.pl3   1  UNL1       -0.2454
      7 N         142.7729  140.4062  168.5396 N.2     1  UNL1       -0.0404
      8 H         142.9378  139.5899  171.9797 H       1  UNL1        0.2885
      9 H         144.2734  139.8876  170.9622 H       1  UNL1        0.2885
     10 C         144.3916  141.4684  164.3754 C.ar    1  UNL1        0.1307
     11 C         144.0747  142.5169  165.4001 C.ar    1  UNL1        0.0117
     12 C         144.7135  143.8711  165.3099 C.3     1  UNL1        0.0342
     13 C         143.1191  142.2112  166.5152 C.ar    1  UNL1        0.0008
     14 C         142.4803  140.8571  166.6054 C.ar    1  UNL1        0.0475
     15 C         142.7971  139.8086  165.5807 C.ar    1  UNL1        0.0008
     16 C         143.7528  140.1142  164.4656 C.ar    1  UNL1        0.0117
     17 C         144.0696  139.0656  163.4408 C.3     1  UNL1        0.0342
     18 C         144.8349  142.3291  161.9645 C.3     1  UNL1        0.2524
     19 O         145.3472  141.7740  163.2603 O.3     1  UNL1       -0.4721
     20 C         140.4762  140.7605  166.6683 C.ar    1  UNL1        0.0479
     21 C         139.3887  139.7446  166.4808 C.ar    1  UNL1        0.0021
     22 C         138.3403  139.9536  165.4287 C.ar    1  UNL1       -0.0001
     23 C         138.3794  141.1787  164.5640 C.ar    1  UNL1        0.0001
     24 C         139.4668  142.1946  164.7514 C.ar    1  UNL1        0.0029
     25 C         140.5153  141.9855  165.8036 C.ar    1  UNL1        0.0022
     26 C         139.5059  143.4197  163.8867 C.ar    1  UNL1        0.0384
     27 C         140.7875  144.1817  163.7231 C.ar    1  UNL1        0.1022
     28 N         140.8266  145.4067  162.8584 N.ar    1  UNL1       -0.2224
     29 C         139.5840  145.8698  162.1573 C.ar    1  UNL1        0.1989
     30 N         138.3023  145.1078  162.3209 N.ar    1  UNL1       -0.2224
     31 C         138.2633  143.8827  163.1856 C.ar    1  UNL1        0.1022
@<TRIPOS>BOND
     1    18    19    1
     2    19    10    1
     3    10    11   ar
     4    11    12    1
     5    11    13   ar
     6    13    14   ar
     7     1    14    1
     8     1    20    1
     9    20    21   ar
    10    21    22   ar
    11    22    23   ar
    12    23    24   ar
    13    24    26    1
    14    26    27   ar
    15    27    28   ar
    16    28    29   ar
    17    29    30   ar
    18    30    31   ar
    19    24    25   ar
    20     1     2    1
    21     2     3    2
    22     3     4    1
    23     3     5    1
    24     5     6    1
    25     5     7    2
    26    14    15   ar
    27    15    16   ar
    28    16    17    1
    29    16    10   ar
    30     7     1    1
    31    25    20   ar
    32    31    26   ar
    33     6     8    1
    34     6     9    1
@<TRIPOS>MOLECULE
*****
 31 34 0 0 0
SMALL
GASTEIGER

@<TRIPOS>ATOM
      1 C         141.5280  140.5452  167.7250 C.3     1  UNL1        0.2959
      2 N         140.3517  140.2805  168.6173 N.2     1  UNL1       -0.2191
      3 C         140.8712  139.9801  169.9922 C.2     1  UNL1        0.1399
      4 C         140.0393  139.6573  171.1979 C.3     1  UNL1        0.0598
      5 C         142.3685  140.0593  169.9495 C.2     1  UNL1        0.3289
      6 N         143.2968  139.8295  171.1051 N.pl3   1  UNL1       -0.2454
      7 N         142.7744  140.4085  168.5483 N.2     1  UNL1       -0.0404
      8 H         142.9328  139.6036  171.9915 H       1  UNL1        0.2885
      9 H         144.2700  139.9046  170.9771 H       1  UNL1        0.2885
     10 C         144.4007  141.4654  164.3858 C.ar    1  UNL1        0.1307
     11 C         143.7702  140.1077  164.4799 C.ar    1  UNL1        0.0117
     12 C         144.0972  139.0566  163.4608 C.3     1  UNL1        0.0342
     13 C         142.8126  139.8009  165.5930 C.ar    1  UNL1        0.0008
     14 C         142.4856  140.8519  166.6120 C.ar    1  UNL1        0.0475
     15 C         143.1161  142.2097  166.5179 C.ar    1  UNL1        0.0008
     16 C         144.0737  142.5164  165.4048 C.ar    1  UNL1        0.0117
     17 C         144.7043  143.8743  165.3107 C.3     1  UNL1        0.0342
     18 C         144.8457  142.3062  161.9681 C.3     1  UNL1        0.2524
     19 O         145.3583  141.7722  163.2727 O.3     1  UNL1       -0.4721
     20 C         140.4818  140.7460  166.6690 C.ar    1  UNL1        0.0479
     21 C         139.4037  139.7210  166.4768 C.ar    1  UNL1        0.0021
     22 C         138.3576  139.9218  165.4209 C.ar    1  UNL1       -0.0001
     23 C         138.3894  141.1477  164.5571 C.ar    1  UNL1        0.0001
     24 C         139.4675  142.1727  164.7492 C.ar    1  UNL1        0.0029
     25 C         140.5137  141.9719  165.8053 C.ar    1  UNL1        0.0022
     26 C         139.4993  143.3986  163.8855 C.ar    1  UNL1        0.0384
     27 C         138.2522  143.8594  163.1910 C.ar    1  UNL1        0.1022
     28 N         138.2840  145.0853  162.3272 N.ar    1  UNL1       -0.2224
     29 C         139.5631  145.8505  162.1578 C.ar    1  UNL1        0.1989
     30 N         140.8103  145.3897  162.8523 N.ar    1  UNL1       -0.2224
     31 C         140.7784  144.1637  163.7161 C.ar    1  UNL1        0.1022
@<TRIPOS>BOND
     1    18    19    1
     2    19    10    1
     3    10    11   ar
     4    11    12    1
     5    11    13   ar
     6    13    14   ar
     7     1    14    1
     8     1    20    1
     9    20    21   ar
    10    21    22   ar
    11    22    23   ar
    12    23    24   ar
    13    24    26    1
    14    26    27   ar
    15    27    28   ar
    16    28    29   ar
    17    29    30   ar
    18    30    31   ar
    19    24    25   ar
    20     1     2    1
    21     2     3    2
    22     3     4    1
    23     3     5    1
    24     5     6    1
    25     5     7    2
    26    14    15   ar
    27    15    16   ar
    28    16    17    1
    29    16    10   ar
    30     7     1    1
    31    25    20   ar
    32    31    26   ar
    33     6     8    1
    34     6     9    1
@<TRIPOS>MOLECULE
*****
 31 34 0 0 0
SMALL
GASTEIGER

@<TRIPOS>ATOM
      1 C         141.5931  141.3529  167.7448 C.3     1  UNL1        0.2959
      2 N         141.6680  140.2641  168.7738 N.2     1  UNL1       -0.2191
      3 C         142.7592  140.6150  169.7414 C.2     1  UNL1        0.1399
      4 C         143.1775  139.8029  170.9311 C.3     1  UNL1        0.0598
      5 C         143.3587  141.9207  169.3103 C.2     1  UNL1        0.3289
      6 N         144.4817  142.6435  169.9934 N.pl3   1  UNL1       -0.2454
      7 N         142.6380  142.3768  168.0764 N.2     1  UNL1       -0.0404
      8 H         144.8928  142.2618  170.8024 H       1  UNL1        0.2885
      9 H         144.8077  143.4995  169.6326 H       1  UNL1        0.2885
     10 C         140.6728  144.0971  164.2992 C.ar    1  UNL1        0.1307
     11 C         141.9515  143.3130  164.3127 C.ar    1  UNL1        0.0117
     12 C         142.9235  143.4437  163.1777 C.3     1  UNL1        0.0342
     13 C         142.2583  142.3983  165.4613 C.ar    1  UNL1        0.0008
     14 C         141.2864  142.2676  166.5963 C.ar    1  UNL1        0.0475
     15 C         140.0077  143.0517  166.5828 C.ar    1  UNL1        0.0008
     16 C         139.7010  143.9664  165.4342 C.ar    1  UNL1        0.0117
     17 C         138.4222  144.7505  165.4207 C.3     1  UNL1        0.0342
     18 C         139.6405  144.4873  161.9472 C.3     1  UNL1        0.2524
     19 O         140.3661  145.0118  163.1507 O.3     1  UNL1       -0.4721
     20 C         140.4841  140.5203  167.1731 C.ar    1  UNL1        0.0479
     21 C         139.3538  140.0717  168.0512 C.ar    1  UNL1        0.0021
     22 C         138.2448  139.2391  167.4796 C.ar    1  UNL1       -0.0001
     23 C         138.2661  138.8551  166.0298 C.ar    1  UNL1        0.0001
     24 C         139.3964  139.3036  165.1516 C.ar    1  UNL1        0.0029
     25 C         140.5054  140.1362  165.7233 C.ar    1  UNL1        0.0022
     26 C         139.4177  138.9195  163.7018 C.ar    1  UNL1        0.0384
     27 C         138.3013  139.3476  162.7960 C.ar    1  UNL1        0.1022
     28 N         138.3226  138.9635  161.3462 N.ar    1  UNL1       -0.2224
     29 C         139.4604  138.1513  160.8021 C.ar    1  UNL1        0.1989
     30 N         140.5768  137.7233  161.7078 N.ar    1  UNL1       -0.2224
     31 C         140.5554  138.1074  163.1577 C.ar    1  UNL1        0.1022
@<TRIPOS>BOND
     1    18    19    1
     2    19    10    1
     3    10    11   ar
     4    11    12    1
     5    11    13   ar
     6    13    14   ar
     7     1    14    1
     8     1    20    1
     9    20    21   ar
    10    21    22   ar
    11    22    23   ar
    12    23    24   ar
    13    24    26    1
    14    26    27   ar
    15    27    28   ar
    16    28    29   ar
    17    29    30   ar
    18    30    31   ar
    19    24    25   ar
    20     1     2    1
    21     2     3    2
    22     3     4    1
    23     3     5    1
    24     5     6    1
    25     5     7    2
    26    14    15   ar
    27    15    16   ar
    28    16    17    1
    29    16    10   ar
    30     7     1    1
    31    25    20   ar
    32    31    26   ar
    33     6     8    1
    34     6     9    1
@<TRIPOS>MOLECULE
*****
 31 34 0 0 0
SMALL
GASTEIGER

@<TRIPOS>ATOM
      1 C         141.5915  141.3566  167.7407 C.3     1  UNL1        0.2959
      2 N         141.6663  140.2698  168.7719 N.2     1  UNL1       -0.2191
      3 C         142.7571  140.6231  169.7392 C.2     1  UNL1        0.1399
      4 C         143.1751  139.8134  170.9307 C.3     1  UNL1        0.0598
      5 C         143.3563  141.9281  169.3058 C.2     1  UNL1        0.3289
      6 N         144.4788  142.6525  169.9878 N.pl3   1  UNL1       -0.2454
      7 N         142.6359  142.3814  168.0706 N.2     1  UNL1       -0.0404
      8 H         144.8897  142.2726  170.7978 H       1  UNL1        0.2885
      9 H         144.8046  143.5080  169.6255 H       1  UNL1        0.2885
     10 C         140.6717  144.0936  164.2892 C.ar    1  UNL1        0.1307
     11 C         139.7001  143.9660  165.4248 C.ar    1  UNL1        0.0117
     12 C         138.4217  144.7507  165.4099 C.3     1  UNL1        0.0342
     13 C         140.0066  143.0536  166.5753 C.ar    1  UNL1        0.0008
     14 C         141.2849  142.2689  166.5902 C.ar    1  UNL1        0.0475
     15 C         142.2566  142.3966  165.4547 C.ar    1  UNL1        0.0008
     16 C         141.9500  143.3090  164.3042 C.ar    1  UNL1        0.0117
     17 C         142.9217  143.4366  163.1686 C.3     1  UNL1        0.0342
     18 C         139.6470  144.4770  161.9328 C.3     1  UNL1        0.2524
     19 O         140.3651  145.0060  163.1388 O.3     1  UNL1       -0.4721
     20 C         140.4830  140.5225  167.1702 C.ar    1  UNL1        0.0479
     21 C         139.3533  140.0739  168.0491 C.ar    1  UNL1        0.0021
     22 C         138.2448  139.2398  167.4787 C.ar    1  UNL1       -0.0001
     23 C         138.2660  138.8543  166.0292 C.ar    1  UNL1        0.0001
     24 C         139.3956  139.3028  165.1503 C.ar    1  UNL1        0.0029
     25 C         140.5041  140.1369  165.7207 C.ar    1  UNL1        0.0022
     26 C         139.4167  138.9173  163.7008 C.ar    1  UNL1        0.0384
     27 C         138.2990  139.3424  162.7953 C.ar    1  UNL1        0.1022
     28 N         138.3202  138.9569  161.3458 N.ar    1  UNL1       -0.2224
     29 C         139.4591  138.1462  160.8019 C.ar    1  UNL1        0.1989
     30 N         140.5768  137.7211  161.7074 N.ar    1  UNL1       -0.2224
     31 C         140.5556  138.1066  163.1570 C.ar    1  UNL1        0.1022
@<TRIPOS>BOND
     1    18    19    1
     2    19    10    1
     3    10    11   ar
     4    11    12    1
     5    11    13   ar
     6    13    14   ar
     7     1    14    1
     8     1    20    1
     9    20    21   ar
    10    21    22   ar
    11    22    23   ar
    12    23    24   ar
    13    24    26    1
    14    26    27   ar
    15    27    28   ar
    16    28    29   ar
    17    29    30   ar
    18    30    31   ar
    19    24    25   ar
    20     1     2    1
    21     2     3    2
    22     3     4    1
    23     3     5    1
    24     5     6    1
    25     5     7    2
    26    14    15   ar
    27    15    16   ar
    28    16    17    1
    29    16    10   ar
    30     7     1    1
    31    25    20   ar
    32    31    26   ar
    33     6     8    1
    34     6     9    1
@<TRIPOS>MOLECULE
*****
 31 34 0 0 0
SMALL
GASTEIGER

@<TRIPOS>ATOM
      1 C         140.3428  141.1056  167.3860 C.3     1  UNL1        0.2959
      2 N         140.8382  142.0471  168.4434 N.2     1  UNL1       -0.2191
      3 C         140.1402  141.7103  169.7278 C.2     1  UNL1        0.1399
      4 C         140.3348  142.4018  171.0446 C.3     1  UNL1        0.0598
      5 C         139.2136  140.5606  169.4641 C.2     1  UNL1        0.3289
      6 N         138.3189  139.9006  170.4710 N.pl3   1  UNL1       -0.2454
      7 N         139.3388  140.1869  168.0168 N.2     1  UNL1       -0.0404
      8 H         138.3068  140.2192  171.4024 H       1  UNL1        0.2885
      9 H         137.7437  139.1488  170.2004 H       1  UNL1        0.2885
     10 C         139.4474  138.7543  163.6551 C.ar    1  UNL1        0.1307
     11 C         138.6642  139.9953  163.9656 C.ar    1  UNL1        0.0117
     12 C         137.5824  140.4526  163.0324 C.3     1  UNL1        0.0342
     13 C         138.9626  140.7790  165.2092 C.ar    1  UNL1        0.0008
     14 C         140.0444  140.3218  166.1424 C.ar    1  UNL1        0.0475
     15 C         140.8276  139.0809  165.8319 C.ar    1  UNL1        0.0008
     16 C         140.5291  138.2971  164.5882 C.ar    1  UNL1        0.0117
     17 C         141.3125  137.0561  164.2777 C.3     1  UNL1        0.0342
     18 C         139.8703  138.2862  161.1348 C.3     1  UNL1        0.2524
     19 O         139.1489  137.9706  162.4114 O.3     1  UNL1       -0.4721
     20 C         141.2844  141.8604  166.4952 C.ar    1  UNL1        0.0479
     21 C         142.7584  141.8399  166.7729 C.ar    1  UNL1        0.0021
     22 C         143.6999  142.5947  165.8821 C.ar    1  UNL1       -0.0001
     23 C         143.1676  143.3701  164.7136 C.ar    1  UNL1        0.0001
     24 C         141.6938  143.3907  164.4359 C.ar    1  UNL1        0.0029
     25 C         140.7521  142.6358  165.3267 C.ar    1  UNL1        0.0022
     26 C         141.1615  144.1661  163.2674 C.ar    1  UNL1        0.0384
     27 C         142.0119  144.3623  162.0474 C.ar    1  UNL1        0.1022
     28 N         141.4796  145.1377  160.8789 N.ar    1  UNL1       -0.2224
     29 C         140.0968  145.7169  160.9303 C.ar    1  UNL1        0.1989
     30 N         139.2464  145.5207  162.1503 N.ar    1  UNL1       -0.2224
     31 C         139.7788  144.7452  163.3189 C.ar    1  UNL1        0.1022
@<TRIPOS>BOND
     1    18    19    1
     2    19    10    1
     3    10    11   ar
     4    11    12    1
     5    11    13   ar
     6    13    14   ar
     7     1    14    1
     8     1    20    1
     9    20    21   ar
    10    21    22   ar
    11    22    23   ar
    12    23    24   ar
    13    24    26    1
    14    26    27   ar
    15    27    28   ar
    16    28    29   ar
    17    29    30   ar
    18    30    31   ar
    19    24    25   ar
    20     1     2    1
    21     2     3    2
    22     3     4    1
    23     3     5    1
    24     5     6    1
    25     5     7    2
    26    14    15   ar
    27    15    16   ar
    28    16    17    1
    29    16    10   ar
    30     7     1    1
    31    25    20   ar
    32    31    26   ar
    33     6     8    1
    34     6     9    1
@<TRIPOS>MOLECULE
*****
 31 34 0 0 0
SMALL
GASTEIGER

@<TRIPOS>ATOM
      1 C         140.3292  141.0978  167.3995 C.3     1  UNL1        0.2959
      2 N         140.8354  142.0277  168.4621 N.2     1  UNL1       -0.2191
      3 C         140.1398  141.6864  169.7465 C.2     1  UNL1        0.1399
      4 C         140.3444  142.3665  171.0677 C.3     1  UNL1        0.0598
      5 C         139.2036  140.5456  169.4777 C.2     1  UNL1        0.3289
      6 N         138.3077  139.8847  170.4829 N.pl3   1  UNL1       -0.2454
      7 N         139.3207  140.1818  168.0272 N.2     1  UNL1       -0.0404
      8 H         138.3015  140.1964  171.4168 H       1  UNL1        0.2885
      9 H         137.7260  139.1392  170.2089 H       1  UNL1        0.2885
     10 C         139.4025  138.7813  163.6545 C.ar    1  UNL1        0.1307
     11 C         140.4755  138.3021  164.5866 C.ar    1  UNL1        0.0117
     12 C         141.2397  137.0506  164.2704 C.3     1  UNL1        0.0342
     13 C         140.7844  139.0742  165.8350 C.ar    1  UNL1        0.0008
     14 C         140.0203  140.3256  166.1512 C.ar    1  UNL1        0.0475
     15 C         138.9473  140.8049  165.2190 C.ar    1  UNL1        0.0008
     16 C         138.6384  140.0328  163.9707 C.ar    1  UNL1        0.0117
     17 C         137.5654  140.5121  163.0385 C.3     1  UNL1        0.0342
     18 C         139.8242  138.3182  161.1330 C.3     1  UNL1        0.2524
     19 O         139.0936  138.0092  162.4061 O.3     1  UNL1       -0.4721
     20 C         141.2731  141.8523  166.5109 C.ar    1  UNL1        0.0479
     21 C         142.7466  141.8296  166.7907 C.ar    1  UNL1        0.0021
     22 C         143.6905  142.5841  165.9021 C.ar    1  UNL1       -0.0001
     23 C         143.1609  143.3613  164.7336 C.ar    1  UNL1        0.0001
     24 C         141.6875  143.3840  164.4536 C.ar    1  UNL1        0.0029
     25 C         140.7436  142.6295  165.3423 C.ar    1  UNL1        0.0022
     26 C         141.1580  144.1612  163.2851 C.ar    1  UNL1        0.0384
     27 C         142.0146  144.3671  162.0711 C.ar    1  UNL1        0.1022
     28 N         141.4851  145.1443  160.9025 N.ar    1  UNL1       -0.2224
     29 C         140.0988  145.7156  160.9479 C.ar    1  UNL1        0.1989
     30 N         139.2421  145.5096  162.1619 N.ar    1  UNL1       -0.2224
     31 C         139.7717  144.7324  163.3305 C.ar    1  UNL1        0.1022
@<TRIPOS>BOND
     1    18    19    1
     2    19    10    1
     3    10    11   ar
     4    11    12    1
     5    11    13   ar
     6    13    14   ar
     7     1    14    1
     8     1    20    1
     9    20    21   ar
    10    21    22   ar
    11    22    23   ar
    12    23    24   ar
    13    24    26    1
    14    26    27   ar
    15    27    28   ar
    16    28    29   ar
    17    29    30   ar
    18    30    31   ar
    19    24    25   ar
    20     1     2    1
    21     2     3    2
    22     3     4    1
    23     3     5    1
    24     5     6    1
    25     5     7    2
    26    14    15   ar
    27    15    16   ar
    28    16    17    1
    29    16    10   ar
    30     7     1    1
    31    25    20   ar
    32    31    26   ar
    33     6     8    1
    34     6     9    1
@<TRIPOS>MOLECULE
*****
 31 34 0 0 0
SMALL
GASTEIGER

@<TRIPOS>ATOM
      1 C         140.2009  141.5445  167.2151 C.3     1  UNL1        0.2959
      2 N         140.1794  140.5498  168.3377 N.2     1  UNL1       -0.2191
      3 C         140.4023  141.2942  169.6208 C.2     1  UNL1        0.1399
      4 C         140.4565  140.6899  170.9926 C.3     1  UNL1        0.0598
      5 C         140.5615  142.7488  169.2912 C.2     1  UNL1        0.3289
      6 N         140.8029  143.8546  170.2756 N.pl3   1  UNL1       -0.2454
      7 N         140.4370  142.9036  167.8044 N.2     1  UNL1       -0.0404
      8 H         140.8699  143.6521  171.2367 H       1  UNL1        0.2885
      9 H         140.8943  144.7828  169.9606 H       1  UNL1        0.2885
     10 C         140.1132  143.7736  163.3070 C.ar    1  UNL1        0.1307
     11 C         141.3688  143.7469  164.1272 C.ar    1  UNL1        0.0117
     12 C         142.5952  144.4633  163.6447 C.3     1  UNL1        0.0342
     13 C         141.3980  143.0039  165.4299 C.ar    1  UNL1        0.0008
     14 C         140.1716  142.2875  165.9124 C.ar    1  UNL1        0.0475
     15 C         138.9161  142.3142  165.0922 C.ar    1  UNL1        0.0008
     16 C         138.8869  143.0572  163.7895 C.ar    1  UNL1        0.0117
     17 C         137.6312  143.0838  162.9692 C.3     1  UNL1        0.0342
     18 C         139.6948  145.9649  161.9754 C.3     1  UNL1        0.2524
     19 O         140.0840  144.5166  162.0042 O.3     1  UNL1       -0.4721
     20 C         139.9586  140.3408  166.3535 C.ar    1  UNL1        0.0479
     21 C         138.7622  139.4703  166.6002 C.ar    1  UNL1        0.0021
     22 C         138.5200  138.2667  165.7386 C.ar    1  UNL1       -0.0001
     23 C         139.4741  137.9335  164.6302 C.ar    1  UNL1        0.0001
     24 C         140.6704  138.8039  164.3834 C.ar    1  UNL1        0.0029
     25 C         140.9127  140.0076  165.2450 C.ar    1  UNL1        0.0022
     26 C         141.6245  138.4707  163.2749 C.ar    1  UNL1        0.0384
     27 C         143.0899  138.7461  163.4385 C.ar    1  UNL1        0.1022
     28 N         144.0440  138.4129  162.3301 N.ar    1  UNL1       -0.2224
     29 C         143.5327  137.8043  161.0579 C.ar    1  UNL1        0.1989
     30 N         142.0673  137.5289  160.8943 N.ar    1  UNL1       -0.2224
     31 C         141.1132  137.8621  162.0029 C.ar    1  UNL1        0.1022
@<TRIPOS>BOND
     1    18    19    1
     2    19    10    1
     3    10    11   ar
     4    11    12    1
     5    11    13   ar
     6    13    14   ar
     7     1    14    1
     8     1    20    1
     9    20    21   ar
    10    21    22   ar
    11    22    23   ar
    12    23    24   ar
    13    24    26    1
    14    26    27   ar
    15    27    28   ar
    16    28    29   ar
    17    29    30   ar
    18    30    31   ar
    19    24    25   ar
    20     1     2    1
    21     2     3    2
    22     3     4    1
    23     3     5    1
    24     5     6    1
    25     5     7    2
    26    14    15   ar
    27    15    16   ar
    28    16    17    1
    29    16    10   ar
    30     7     1    1
    31    25    20   ar
    32    31    26   ar
    33     6     8    1
    34     6     9    1
@<TRIPOS>MOLECULE
*****
 31 34 0 0 0
SMALL
GASTEIGER

@<TRIPOS>ATOM
      1 C         140.9449  141.3336  167.7916 C.3     1  UNL1        0.2959
      2 N         140.8141  140.1811  168.7427 N.2     1  UNL1       -0.2191
      3 C         140.2717  140.7084  170.0381 C.2     1  UNL1        0.1399
      4 C         139.9842  139.8994  171.2680 C.3     1  UNL1        0.0598
      5 C         140.0673  142.1868  169.8874 C.2     1  UNL1        0.3289
      6 N         139.5394  143.1156  170.9404 N.pl3   1  UNL1       -0.2454
      7 N         140.4833  142.5732  168.4991 N.2     1  UNL1       -0.0404
      8 H         139.2919  142.7653  171.8265 H       1  UNL1        0.2885
      9 H         139.4406  144.0755  170.7453 H       1  UNL1        0.2885
     10 C         141.6579  144.1362  164.3438 C.ar    1  UNL1        0.1307
     11 C         140.2766  143.9750  164.9060 C.ar    1  UNL1        0.0117
     12 C         139.1330  144.7479  164.3189 C.3     1  UNL1        0.0342
     13 C         140.0390  143.0408  166.0553 C.ar    1  UNL1        0.0008
     14 C         141.1826  142.2678  166.6423 C.ar    1  UNL1        0.0475
     15 C         142.5638  142.4291  166.0802 C.ar    1  UNL1        0.0008
     16 C         142.8015  143.3632  164.9309 C.ar    1  UNL1        0.0117
     17 C         144.1828  143.5244  164.3687 C.3     1  UNL1        0.0342
     18 C         141.7689  144.5729  161.7851 C.3     1  UNL1        0.2524
     19 O         141.8956  145.0704  163.1945 O.3     1  UNL1       -0.4721
     20 C         141.4562  140.2894  166.8439 C.ar    1  UNL1        0.0479
     21 C         142.7145  139.5380  167.1635 C.ar    1  UNL1        0.0021
     22 C         143.2257  138.4939  166.2158 C.ar    1  UNL1       -0.0001
     23 C         142.4787  138.2010  164.9485 C.ar    1  UNL1        0.0001
     24 C         141.2204  138.9523  164.6288 C.ar    1  UNL1        0.0029
     25 C         140.7091  139.9965  165.5766 C.ar    1  UNL1        0.0022
     26 C         140.4734  138.6594  163.3615 C.ar    1  UNL1        0.0384
     27 C         141.1976  138.6552  162.0479 C.ar    1  UNL1        0.1022
     28 N         140.4505  138.3623  160.7806 N.ar    1  UNL1       -0.2224
     29 C         138.9792  138.0735  160.8268 C.ar    1  UNL1        0.1989
     30 N         138.2551  138.0777  162.1404 N.ar    1  UNL1       -0.2224
     31 C         139.0022  138.3706  163.4078 C.ar    1  UNL1        0.1022
@<TRIPOS>BOND
     1    18    19    1
     2    19    10    1
     3    10    11   ar
     4    11    12    1
     5    11    13   ar
     6    13    14   ar
     7     1    14    1
     8     1    20    1
     9    20    21   ar
    10    21    22   ar
    11    22    23   ar
    12    23    24   ar
    13    24    26    1
    14    26    27   ar
    15    27    28   ar
    16    28    29   ar
    17    29    30   ar
    18    30    31   ar
    19    24    25   ar
    20     1     2    1
    21     2     3    2
    22     3     4    1
    23     3     5    1
    24     5     6    1
    25     5     7    2
    26    14    15   ar
    27    15    16   ar
    28    16    17    1
    29    16    10   ar
    30     7     1    1
    31    25    20   ar
    32    31    26   ar
    33     6     8    1
    34     6     9    1
@<TRIPOS>MOLECULE
*****
 31 34 0 0 0
SMALL
GASTEIGER

@<TRIPOS>ATOM
      1 C         141.8864  141.4351  167.4279 C.3     1  UNL1        0.2959
      2 N         142.0266  140.2407  168.3243 N.2     1  UNL1       -0.2191
      3 C         142.7972  140.6617  169.5404 C.2     1  UNL1        0.1399
      4 C         143.1668  139.7824  170.6981 C.3     1  UNL1        0.0598
      5 C         143.1333  142.1164  169.3956 C.2     1  UNL1        0.3289
      6 N         143.8980  142.9471  170.3830 N.pl3   1  UNL1       -0.2454
      7 N         142.5704  142.5944  168.0900 N.2     1  UNL1       -0.0404
      8 H         144.2286  142.5407  171.2166 H       1  UNL1        0.2885
      9 H         144.0694  143.8987  170.1976 H       1  UNL1        0.2885
     10 C         140.9982  144.4221  164.1815 C.ar    1  UNL1        0.1307
     11 C         139.9233  144.0239  165.1489 C.ar    1  UNL1        0.0117
     12 C         138.5521  144.6214  165.0341 C.3     1  UNL1        0.0342
     13 C         140.2193  143.0283  166.2310 C.ar    1  UNL1        0.0008
     14 C         141.5904  142.4308  166.3458 C.ar    1  UNL1        0.0475
     15 C         142.6653  142.8289  165.3784 C.ar    1  UNL1        0.0008
     16 C         142.3693  143.8246  164.2962 C.ar    1  UNL1        0.0117
     17 C         143.4443  144.2227  163.3288 C.3     1  UNL1        0.0342
     18 C         140.2054  144.9486  161.7640 C.3     1  UNL1        0.2524
     19 O         140.7022  145.4177  163.0993 O.3     1  UNL1       -0.4721
     20 C         141.1405  140.4841  166.5396 C.ar    1  UNL1        0.0479
     21 C         139.7678  140.0181  166.9247 C.ar    1  UNL1        0.0021
     22 C         139.0219  139.0671  166.0364 C.ar    1  UNL1       -0.0001
     23 C         139.6488  138.5820  164.7629 C.ar    1  UNL1        0.0001
     24 C         141.0215  139.0479  164.3778 C.ar    1  UNL1        0.0029
     25 C         141.7674  139.9990  165.2661 C.ar    1  UNL1        0.0022
     26 C         141.6484  138.5628  163.1043 C.ar    1  UNL1        0.0384
     27 C         143.1401  138.4441  163.0005 C.ar    1  UNL1        0.1022
     28 N         143.7670  137.9590  161.7270 N.ar    1  UNL1       -0.2224
     29 C         142.9022  137.5926  160.5574 C.ar    1  UNL1        0.1989
     30 N         141.4105  137.7113  160.6613 N.ar    1  UNL1       -0.2224
     31 C         140.7836  138.1964  161.9348 C.ar    1  UNL1        0.1022
@<TRIPOS>BOND
     1    18    19    1
     2    19    10    1
     3    10    11   ar
     4    11    12    1
     5    11    13   ar
     6    13    14   ar
     7     1    14    1
     8     1    20    1
     9    20    21   ar
    10    21    22   ar
    11    22    23   ar
    12    23    24   ar
    13    24    26    1
    14    26    27   ar
    15    27    28   ar
    16    28    29   ar
    17    29    30   ar
    18    30    31   ar
    19    24    25   ar
    20     1     2    1
    21     2     3    2
    22     3     4    1
    23     3     5    1
    24     5     6    1
    25     5     7    2
    26    14    15   ar
    27    15    16   ar
    28    16    17    1
    29    16    10   ar
    30     7     1    1
    31    25    20   ar
    32    31    26   ar
    33     6     8    1
    34     6     9    1
