@<TRIPOS>MOLECULE
*****
 29 32 0 0 0
SMALL
GASTEIGER

@<TRIPOS>ATOM
      1 C         141.0277  143.0992  163.4065 C.3     1  UNL1        0.1910
      2 C         142.2489  142.2624  163.1645 C.3     1  UNL1        0.0424
      3 C         142.6349  141.1972  164.1475 C.3     1  UNL1        0.0431
      4 C         143.8561  140.3604  163.9056 C.3     1  UNL1        0.0921
      5 S         144.2422  139.2952  164.8886 S.3     1  UNL1       -0.0787
      6 C         143.4072  139.0669  166.1136 C.2     1  UNL1        0.1483
      7 N         143.7933  138.0017  167.0966 N.pl3   1  UNL1       -0.3380
      8 N         142.1860  139.9037  166.3555 N.2     1  UNL1       -0.2484
      9 C         141.7999  140.9689  165.3725 C.3     1  UNL1        0.1352
     10 C         140.5788  141.8057  165.6145 C.3     1  UNL1        0.1692
     11 O         140.1927  142.8708  164.6315 O.3     1  UNL1       -0.3446
     12 H         144.5948  137.4524  166.9378 H       1  UNL1        0.1442
     13 H         143.2452  137.8518  167.9006 H       1  UNL1        0.1442
     14 C         140.9649  140.7405  166.5975 C.ar    1  UNL1        0.0278
     15 C         139.8016  139.7948  166.5466 C.ar    1  UNL1        0.0021
     16 C         138.9666  139.5664  167.7716 C.ar    1  UNL1        0.0295
     17 C         139.2948  140.2838  169.0474 C.ar    1  UNL1        0.1424
     18 F         138.4597  140.0555  170.2724 F       1  UNL1       -0.2041
     19 C         140.4580  141.2295  169.0982 C.ar    1  UNL1        0.0590
     20 C         141.2930  141.4579  167.8733 C.ar    1  UNL1        0.1402
     21 F         142.4562  142.4036  167.9241 F       1  UNL1       -0.2044
     22 C         140.2866  145.7367  158.8925 C.3     1  UNL1        0.0556
     23 C         140.3010  145.3767  160.3486 C.ar    1  UNL1        0.0997
     24 C         139.7938  146.2305  161.4730 C.ar    1  UNL1        0.1958
     25 O         140.0044  145.4812  162.7552 O.2     1  UNL1       -0.4331
     26 C         140.6416  144.1644  162.4234 C.ar    1  UNL1        0.2327
     27 N         140.8249  144.0999  160.9361 N.ar    1  UNL1       -0.2144
     28 C         144.6912  140.5887  162.6806 C.3     1  UNL1        0.2044
     29 F         145.8419  141.5498  162.7258 F       1  UNL1       -0.2334
@<TRIPOS>BOND
     1    22    23    1
     2    23    24   ar
     3    24    25   ar
     4    25    26   ar
     5     1    26    1
     6     1     2    1
     7     3     2    1
     8     3     4    1
     9     4    28    1
    10    28    29    1
    11     4     5    1
    12     5     6    1
    13     6     7    1
    14     6     8    2
    15     8     9    1
    16     9    14    1
    17    14    15   ar
    18    15    16   ar
    19    16    17   ar
    20    17    18    1
    21    17    19   ar
    22    19    20   ar
    23    20    21    1
    24     9    10    1
    25    10    11    1
    26    26    27   ar
    27    27    23   ar
    28    11     1    1
    29     9     3    1
    30    20    14   ar
    31     7    12    1
    32     7    13    1
@<TRIPOS>MOLECULE
*****
 29 32 0 0 0
SMALL
GASTEIGER

@<TRIPOS>ATOM
      1 C         142.0722  141.9367  165.9532 C.3     1  UNL1        0.1910
      2 C         140.9643  142.9296  165.7617 C.3     1  UNL1        0.0424
      3 C         140.6508  143.4483  164.3897 C.3     1  UNL1        0.0431
      4 C         139.5429  144.4412  164.1982 C.3     1  UNL1        0.0921
      5 S         139.2294  144.9599  162.8261 S.3     1  UNL1       -0.0787
      6 C         140.0239  144.4858  161.6454 C.2     1  UNL1        0.1483
      7 N         139.7104  145.0045  160.2733 N.pl3   1  UNL1       -0.3380
      8 N         141.1318  143.4929  161.8369 N.2     1  UNL1       -0.2484
      9 C         141.4453  142.9742  163.2090 C.3     1  UNL1        0.1352
     10 C         142.5532  141.9813  163.4004 C.3     1  UNL1        0.1692
     11 O         142.8667  141.4626  164.7725 O.3     1  UNL1       -0.3446
     12 H         138.9832  145.6562  160.1477 H       1  UNL1        0.1442
     13 H         140.2319  144.6934  159.4984 H       1  UNL1        0.1442
     14 C         142.2398  142.5000  162.0283 C.ar    1  UNL1        0.0278
     15 C         141.7942  141.2903  161.2615 C.ar    1  UNL1        0.0021
     16 C         142.5887  140.8161  160.0808 C.ar    1  UNL1        0.0295
     17 C         143.8288  141.5517  159.6670 C.ar    1  UNL1        0.1424
     18 F         144.6233  141.0775  158.4863 F       1  UNL1       -0.2041
     19 C         144.2743  142.7614  160.4339 C.ar    1  UNL1        0.0590
     20 C         143.4798  143.2355  161.6145 C.ar    1  UNL1        0.1402
     21 F         143.9254  144.4452  162.3814 F       1  UNL1       -0.2044
     22 C         142.5738  138.7252  170.1144 C.3     1  UNL1        0.0556
     23 C         142.6163  139.9418  169.2380 C.ar    1  UNL1        0.0997
     24 C         143.1199  141.2977  169.6355 C.ar    1  UNL1        0.1958
     25 O         142.9774  142.2100  168.4534 O.2     1  UNL1       -0.4331
     26 C         142.3857  141.4180  167.3253 C.ar    1  UNL1        0.2327
     27 N         142.1625  140.0162  167.8102 N.ar    1  UNL1       -0.2144
     28 C         138.7484  144.9154  165.3788 C.3     1  UNL1        0.2044
     29 F         137.2664  144.6884  165.4257 F       1  UNL1       -0.2334
@<TRIPOS>BOND
     1    22    23    1
     2    23    24   ar
     3    24    25   ar
     4    25    26   ar
     5     1    26    1
     6     1     2    1
     7     3     2    1
     8     3     4    1
     9     4    28    1
    10    28    29    1
    11     4     5    1
    12     5     6    1
    13     6     7    1
    14     6     8    2
    15     8     9    1
    16     9    14    1
    17    14    15   ar
    18    15    16   ar
    19    16    17   ar
    20    17    18    1
    21    17    19   ar
    22    19    20   ar
    23    20    21    1
    24     9    10    1
    25    10    11    1
    26    26    27   ar
    27    27    23   ar
    28    11     1    1
    29     9     3    1
    30    20    14   ar
    31     7    12    1
    32     7    13    1
@<TRIPOS>MOLECULE
*****
 29 32 0 0 0
SMALL
GASTEIGER

@<TRIPOS>ATOM
      1 C         142.2476  141.6295  163.4475 C.3     1  UNL1        0.1910
      2 C         141.0483  140.7351  163.3396 C.3     1  UNL1        0.0424
      3 C         140.3097  140.3184  164.5768 C.3     1  UNL1        0.0431
      4 C         139.1103  139.4240  164.4690 C.3     1  UNL1        0.0921
      5 S         138.3718  139.0073  165.7062 S.3     1  UNL1       -0.0787
      6 C         138.8326  139.4850  167.0514 C.2     1  UNL1        0.1483
      7 N         138.0940  139.0682  168.2887 N.pl3   1  UNL1       -0.3380
      8 N         140.0319  140.3793  167.1593 N.2     1  UNL1       -0.2484
      9 C         140.7705  140.7961  165.9220 C.3     1  UNL1        0.1352
     10 C         141.9698  141.6904  166.0299 C.3     1  UNL1        0.1692
     11 O         142.7084  142.1071  164.7926 O.3     1  UNL1       -0.3446
     12 H         137.3068  138.4812  168.2179 H       1  UNL1        0.1442
     13 H         138.3964  139.3817  169.1716 H       1  UNL1        0.1442
     14 C         141.2313  141.2738  167.2672 C.ar    1  UNL1        0.0278
     15 C         140.6696  142.5381  167.8470 C.ar    1  UNL1        0.0021
     16 C         141.1304  143.0157  169.1921 C.ar    1  UNL1        0.0295
     17 C         142.1529  142.2291  169.9575 C.ar    1  UNL1        0.1424
     18 F         142.6137  142.7067  171.3027 F       1  UNL1       -0.2041
     19 C         142.7145  140.9648  169.3778 C.ar    1  UNL1        0.0590
     20 C         142.2537  140.4872  168.0326 C.ar    1  UNL1        0.1402
     21 F         142.8154  139.2229  167.4528 F       1  UNL1       -0.2044
     22 C         143.3002  143.2792  158.5432 C.3     1  UNL1        0.0556
     23 C         143.4700  142.8045  159.9559 C.ar    1  UNL1        0.0997
     24 C         144.7756  142.5705  160.6565 C.ar    1  UNL1        0.1958
     25 O         144.4766  142.1019  162.0497 O.2     1  UNL1       -0.4331
     26 C         142.9862  142.0462  162.2102 C.ar    1  UNL1        0.2327
     27 N         142.3641  142.4805  160.9162 N.ar    1  UNL1       -0.2144
     28 C         138.6495  138.9464  163.1238 C.3     1  UNL1        0.2044
     29 F         138.4716  137.4788  162.8695 F       1  UNL1       -0.2334
@<TRIPOS>BOND
     1    22    23    1
     2    23    24   ar
     3    24    25   ar
     4    25    26   ar
     5     1    26    1
     6     1     2    1
     7     3     2    1
     8     3     4    1
     9     4    28    1
    10    28    29    1
    11     4     5    1
    12     5     6    1
    13     6     7    1
    14     6     8    2
    15     8     9    1
    16     9    14    1
    17    14    15   ar
    18    15    16   ar
    19    16    17   ar
    20    17    18    1
    21    17    19   ar
    22    19    20   ar
    23    20    21    1
    24     9    10    1
    25    10    11    1
    26    26    27   ar
    27    27    23   ar
    28    11     1    1
    29     9     3    1
    30    20    14   ar
    31     7    12    1
    32     7    13    1
@<TRIPOS>MOLECULE
*****
 29 32 0 0 0
SMALL
GASTEIGER

@<TRIPOS>ATOM
      1 C         140.9201  142.6364  162.5824 C.3     1  UNL1        0.1910
      2 C         142.3355  142.1861  162.7921 C.3     1  UNL1        0.0424
      3 C         142.6302  141.0486  163.7243 C.3     1  UNL1        0.0431
      4 C         144.0456  140.5982  163.9341 C.3     1  UNL1        0.0921
      5 S         144.3404  139.4607  164.8663 S.3     1  UNL1       -0.0787
      6 C         143.2198  138.7734  165.5887 C.2     1  UNL1        0.1483
      7 N         143.5147  137.6358  166.5210 N.pl3   1  UNL1       -0.3380
      8 N         141.8045  139.2237  165.3790 N.2     1  UNL1       -0.2484
      9 C         141.5097  140.3613  164.4468 C.3     1  UNL1        0.1352
     10 C         140.0943  140.8115  164.2371 C.3     1  UNL1        0.1692
     11 O         139.7996  141.9491  163.3049 O.3     1  UNL1       -0.3446
     12 H         144.4436  137.3402  166.6586 H       1  UNL1        0.1442
     13 H         142.7792  137.1847  166.9951 H       1  UNL1        0.1442
     14 C         140.3891  139.6740  165.1692 C.ar    1  UNL1        0.0278
     15 C         139.9205  140.1952  166.4955 C.ar    1  UNL1        0.0021
     16 C         138.7999  139.5079  167.2179 C.ar    1  UNL1        0.0295
     17 C         138.1480  138.2994  166.6142 C.ar    1  UNL1        0.1424
     18 F         137.0274  137.6121  167.3366 F       1  UNL1       -0.2041
     19 C         138.6166  137.7782  165.2880 C.ar    1  UNL1        0.0590
     20 C         139.7371  138.4655  164.5655 C.ar    1  UNL1        0.1402
     21 F         140.2057  137.9443  163.2394 F       1  UNL1       -0.2044
     22 C         140.3630  145.5154  158.1913 C.3     1  UNL1        0.0556
     23 C         140.3692  145.0974  159.6318 C.ar    1  UNL1        0.0997
     24 C         139.9740  145.9519  160.7996 C.ar    1  UNL1        0.1958
     25 O         140.1323  145.1340  162.0470 O.2     1  UNL1       -0.4331
     26 C         140.6253  143.7740  161.6502 C.ar    1  UNL1        0.2327
     27 N         140.7717  143.7514  160.1575 N.ar    1  UNL1       -0.2144
     28 C         145.1662  141.2855  163.2116 C.3     1  UNL1        0.2044
     29 F         145.9746  142.3385  163.9100 F       1  UNL1       -0.2334
@<TRIPOS>BOND
     1    22    23    1
     2    23    24   ar
     3    24    25   ar
     4    25    26   ar
     5     1    26    1
     6     1     2    1
     7     3     2    1
     8     3     4    1
     9     4    28    1
    10    28    29    1
    11     4     5    1
    12     5     6    1
    13     6     7    1
    14     6     8    2
    15     8     9    1
    16     9    14    1
    17    14    15   ar
    18    15    16   ar
    19    16    17   ar
    20    17    18    1
    21    17    19   ar
    22    19    20   ar
    23    20    21    1
    24     9    10    1
    25    10    11    1
    26    26    27   ar
    27    27    23   ar
    28    11     1    1
    29     9     3    1
    30    20    14   ar
    31     7    12    1
    32     7    13    1
@<TRIPOS>MOLECULE
*****
 29 32 0 0 0
SMALL
GASTEIGER

@<TRIPOS>ATOM
      1 C         141.0626  142.7929  161.7953 C.3     1  UNL1        0.1910
      2 C         142.0886  143.2762  162.7770 C.3     1  UNL1        0.0424
      3 C         142.2401  142.5902  164.1023 C.3     1  UNL1        0.0431
      4 C         143.2662  143.0734  165.0840 C.3     1  UNL1        0.0921
      5 S         143.4177  142.3874  166.4093 S.3     1  UNL1       -0.0787
      6 C         142.5433  141.2181  166.7529 C.2     1  UNL1        0.1483
      7 N         142.6949  140.5321  168.0782 N.pl3   1  UNL1       -0.3380
      8 N         141.5173  140.7349  165.7712 N.2     1  UNL1       -0.2484
      9 C         141.3657  141.4209  164.4459 C.3     1  UNL1        0.1352
     10 C         140.3396  140.9376  163.4642 C.3     1  UNL1        0.1692
     11 O         140.1881  141.6236  162.1390 O.3     1  UNL1       -0.3446
     12 H         143.3683  140.8493  168.7225 H       1  UNL1        0.1442
     13 H         142.1209  139.7647  168.3038 H       1  UNL1        0.1442
     14 C         140.4912  140.2516  164.7895 C.ar    1  UNL1        0.0278
     15 C         139.1675  140.4760  165.4586 C.ar    1  UNL1        0.0021
     16 C         138.2930  139.3068  165.8022 C.ar    1  UNL1        0.0295
     17 C         138.7422  137.9130  165.4767 C.ar    1  UNL1        0.1424
     18 F         137.8678  136.7438  165.8204 F       1  UNL1       -0.2041
     19 C         140.0659  137.6887  164.8077 C.ar    1  UNL1        0.0590
     20 C         140.9403  138.8579  164.4641 C.ar    1  UNL1        0.1402
     21 F         142.2640  138.6336  163.7951 F       1  UNL1       -0.2044
     22 C         141.9414  145.9081  157.6235 C.3     1  UNL1        0.0556
     23 C         141.3149  144.9108  158.5524 C.ar    1  UNL1        0.0997
     24 C         140.0404  144.1582  158.3086 C.ar    1  UNL1        0.1958
     25 O         139.7908  143.2733  159.4938 O.2     1  UNL1       -0.4331
     26 C         140.9110  143.4789  160.4700 C.ar    1  UNL1        0.2327
     27 N         141.8529  144.4909  159.8882 N.ar    1  UNL1       -0.2144
     28 C         144.1407  144.2427  164.7404 C.3     1  UNL1        0.2044
     29 F         143.5258  145.5805  164.4537 F       1  UNL1       -0.2334
@<TRIPOS>BOND
     1    22    23    1
     2    23    24   ar
     3    24    25   ar
     4    25    26   ar
     5     1    26    1
     6     1     2    1
     7     3     2    1
     8     3     4    1
     9     4    28    1
    10    28    29    1
    11     4     5    1
    12     5     6    1
    13     6     7    1
    14     6     8    2
    15     8     9    1
    16     9    14    1
    17    14    15   ar
    18    15    16   ar
    19    16    17   ar
    20    17    18    1
    21    17    19   ar
    22    19    20   ar
    23    20    21    1
    24     9    10    1
    25    10    11    1
    26    26    27   ar
    27    27    23   ar
    28    11     1    1
    29     9     3    1
    30    20    14   ar
    31     7    12    1
    32     7    13    1
@<TRIPOS>MOLECULE
*****
 29 32 0 0 0
SMALL
GASTEIGER

@<TRIPOS>ATOM
      1 C         141.4613  141.5640  166.5852 C.3     1  UNL1        0.1910
      2 C         140.7890  140.3128  166.1031 C.3     1  UNL1        0.0424
      3 C         140.0023  140.3284  164.8260 C.3     1  UNL1        0.0431
      4 C         139.3299  139.0772  164.3439 C.3     1  UNL1        0.0921
      5 S         138.5433  139.0928  163.0669 S.3     1  UNL1       -0.0787
      6 C         138.4290  140.3597  162.2719 C.2     1  UNL1        0.1483
      7 N         137.6424  140.3752  160.9947 N.pl3   1  UNL1       -0.3380
      8 N         139.1014  141.6109  162.7539 N.2     1  UNL1       -0.2484
      9 C         139.8880  141.5953  164.0310 C.3     1  UNL1        0.1352
     10 C         140.5604  142.8465  164.5131 C.3     1  UNL1        0.1692
     11 O         141.3470  142.8308  165.7901 O.3     1  UNL1       -0.3446
     12 H         137.2011  139.5540  160.6783 H       1  UNL1        0.1442
     13 H         137.5673  141.2067  160.4729 H       1  UNL1        0.1442
     14 C         139.7737  142.8621  163.2360 C.ar    1  UNL1        0.0278
     15 C         140.7923  143.1805  162.1819 C.ar    1  UNL1        0.0021
     16 C         140.6780  144.4473  161.3869 C.ar    1  UNL1        0.0295
     17 C         139.5451  145.3958  161.6460 C.ar    1  UNL1        0.1424
     18 F         139.4309  146.6626  160.8510 F       1  UNL1       -0.2041
     19 C         138.5266  145.0774  162.7001 C.ar    1  UNL1        0.0590
     20 C         138.6409  143.8105  163.4951 C.ar    1  UNL1        0.1402
     21 F         137.6224  143.4921  164.5492 F       1  UNL1       -0.2044
     22 C         144.8724  142.8697  170.3984 C.3     1  UNL1        0.0556
     23 C         143.8158  142.1485  169.6150 C.ar    1  UNL1        0.0997
     24 C         143.1011  140.9001  170.0400 C.ar    1  UNL1        0.1958
     25 O         142.1321  140.5292  168.9568 O.2     1  UNL1       -0.4331
     26 C         142.2480  141.5484  167.8623 C.ar    1  UNL1        0.2327
     27 N         143.2886  142.5492  168.2691 N.ar    1  UNL1       -0.2144
     28 C         139.4442  137.8103  165.1389 C.3     1  UNL1        0.2044
     29 F         138.2784  137.3250  165.9484 F       1  UNL1       -0.2334
@<TRIPOS>BOND
     1    22    23    1
     2    23    24   ar
     3    24    25   ar
     4    25    26   ar
     5     1    26    1
     6     1     2    1
     7     3     2    1
     8     3     4    1
     9     4    28    1
    10    28    29    1
    11     4     5    1
    12     5     6    1
    13     6     7    1
    14     6     8    2
    15     8     9    1
    16     9    14    1
    17    14    15   ar
    18    15    16   ar
    19    16    17   ar
    20    17    18    1
    21    17    19   ar
    22    19    20   ar
    23    20    21    1
    24     9    10    1
    25    10    11    1
    26    26    27   ar
    27    27    23   ar
    28    11     1    1
    29     9     3    1
    30    20    14   ar
    31     7    12    1
    32     7    13    1
@<TRIPOS>MOLECULE
*****
 29 32 0 0 0
SMALL
GASTEIGER

@<TRIPOS>ATOM
      1 C         144.1898  142.6143  158.8976 C.3     1  UNL1        0.1910
      2 C         143.0462  143.5407  158.6081 C.3     1  UNL1        0.0424
      3 C         142.2089  144.0730  159.7331 C.3     1  UNL1        0.0431
      4 C         141.0652  144.9994  159.4436 C.3     1  UNL1        0.0921
      5 S         140.2279  145.5317  160.5685 S.3     1  UNL1       -0.0787
      6 C         140.5343  145.1376  161.9830 C.2     1  UNL1        0.1483
      7 N         139.6969  145.6699  163.1080 N.pl3   1  UNL1       -0.3380
      8 N         141.6778  144.2111  162.2726 N.2     1  UNL1       -0.2484
      9 C         142.5152  143.6788  161.1476 C.3     1  UNL1        0.1352
     10 C         143.6588  142.7524  161.4371 C.3     1  UNL1        0.1692
     11 O         144.4961  142.2201  160.3121 O.3     1  UNL1       -0.3446
     12 H         138.9463  146.2779  162.9180 H       1  UNL1        0.1442
     13 H         139.8979  145.4112  164.0364 H       1  UNL1        0.1442
     14 C         142.8215  143.2847  162.5621 C.ar    1  UNL1        0.0278
     15 C         142.2201  142.0380  163.1402 C.ar    1  UNL1        0.0021
     16 C         142.5264  141.6439  164.5547 C.ar    1  UNL1        0.0295
     17 C         143.4342  142.4964  165.3911 C.ar    1  UNL1        0.1424
     18 F         143.7405  142.1022  166.8056 F       1  UNL1       -0.2041
     19 C         144.0355  143.7429  164.8129 C.ar    1  UNL1        0.0590
     20 C         143.7292  144.1371  163.3984 C.ar    1  UNL1        0.1402
     21 F         144.3306  145.3837  162.8202 F       1  UNL1       -0.2044
     22 C         148.1153  141.9799  155.4236 C.3     1  UNL1        0.0556
     23 C         146.8315  141.7904  156.1758 C.ar    1  UNL1        0.0997
     24 C         145.7997  140.7352  155.9071 C.ar    1  UNL1        0.1958
     25 O         144.6845  140.9155  156.8940 O.2     1  UNL1       -0.4331
     26 C         145.0271  142.0820  157.7726 C.ar    1  UNL1        0.2327
     27 N         146.3540  142.6227  157.3287 N.ar    1  UNL1       -0.2144
     28 C         140.7589  145.3936  158.0291 C.3     1  UNL1        0.2044
     29 F         141.6939  146.2991  157.2836 F       1  UNL1       -0.2334
@<TRIPOS>BOND
     1    22    23    1
     2    23    24   ar
     3    24    25   ar
     4    25    26   ar
     5     1    26    1
     6     1     2    1
     7     3     2    1
     8     3     4    1
     9     4    28    1
    10    28    29    1
    11     4     5    1
    12     5     6    1
    13     6     7    1
    14     6     8    2
    15     8     9    1
    16     9    14    1
    17    14    15   ar
    18    15    16   ar
    19    16    17   ar
    20    17    18    1
    21    17    19   ar
    22    19    20   ar
    23    20    21    1
    24     9    10    1
    25    10    11    1
    26    26    27   ar
    27    27    23   ar
    28    11     1    1
    29     9     3    1
    30    20    14   ar
    31     7    12    1
    32     7    13    1
@<TRIPOS>MOLECULE
*****
 29 32 0 0 0
SMALL
GASTEIGER

@<TRIPOS>ATOM
      1 C         142.0308  140.3642  166.4023 C.3     1  UNL1        0.1910
      2 C         140.8188  139.5038  166.2006 C.3     1  UNL1        0.0424
      3 C         140.4134  139.0920  164.8164 C.3     1  UNL1        0.0431
      4 C         139.2013  138.2315  164.6146 C.3     1  UNL1        0.0921
      5 S         138.7959  137.8197  163.2304 S.3     1  UNL1       -0.0787
      6 C         139.6025  138.2683  162.0480 C.2     1  UNL1        0.1483
      7 N         139.1970  137.8564  160.6637 N.pl3   1  UNL1       -0.3380
      8 N         140.8145  139.1287  162.2497 N.2     1  UNL1       -0.2484
      9 C         141.2199  139.5406  163.6339 C.3     1  UNL1        0.1352
     10 C         142.4319  140.4010  163.8356 C.3     1  UNL1        0.1692
     11 O         142.8373  140.8128  165.2198 O.3     1  UNL1       -0.3446
     12 H         138.4015  137.2917  160.5313 H       1  UNL1        0.1442
     13 H         139.7264  138.1509  159.8876 H       1  UNL1        0.1442
     14 C         142.0265  139.9892  162.4515 C.ar    1  UNL1        0.0278
     15 C         141.7316  141.3073  161.7990 C.ar    1  UNL1        0.0021
     16 C         142.5382  141.7559  160.6165 C.ar    1  UNL1        0.0295
     17 C         143.6396  140.8864  160.0865 C.ar    1  UNL1        0.1424
     18 F         144.4462  141.3350  158.9041 F       1  UNL1       -0.2041
     19 C         143.9345  139.5684  160.7390 C.ar    1  UNL1        0.0590
     20 C         143.1279  139.1198  161.9215 C.ar    1  UNL1        0.1402
     21 F         143.4227  137.8017  162.5739 F       1  UNL1       -0.2044
     22 C         143.0600  143.2987  170.6697 C.3     1  UNL1        0.0556
     23 C         142.9093  142.1249  169.7480 C.ar    1  UNL1        0.0997
     24 C         143.2111  140.6947  170.0851 C.ar    1  UNL1        0.1958
     25 O         142.9187  139.8612  168.8729 O.2     1  UNL1       -0.4331
     26 C         142.4362  140.7761  167.7865 C.ar    1  UNL1        0.2327
     27 N         142.4304  142.1752  168.3274 N.ar    1  UNL1       -0.2144
     28 C         138.3948  137.7829  165.7971 C.3     1  UNL1        0.2044
     29 F         137.5160  138.7603  166.5199 F       1  UNL1       -0.2334
@<TRIPOS>BOND
     1    22    23    1
     2    23    24   ar
     3    24    25   ar
     4    25    26   ar
     5     1    26    1
     6     1     2    1
     7     3     2    1
     8     3     4    1
     9     4    28    1
    10    28    29    1
    11     4     5    1
    12     5     6    1
    13     6     7    1
    14     6     8    2
    15     8     9    1
    16     9    14    1
    17    14    15   ar
    18    15    16   ar
    19    16    17   ar
    20    17    18    1
    21    17    19   ar
    22    19    20   ar
    23    20    21    1
    24     9    10    1
    25    10    11    1
    26    26    27   ar
    27    27    23   ar
    28    11     1    1
    29     9     3    1
    30    20    14   ar
    31     7    12    1
    32     7    13    1
@<TRIPOS>MOLECULE
*****
 29 32 0 0 0
SMALL
GASTEIGER

@<TRIPOS>ATOM
      1 C         141.1184  140.8973  166.0374 C.3     1  UNL1        0.1910
      2 C         142.4074  140.3685  165.4817 C.3     1  UNL1        0.0424
      3 C         142.4447  139.7827  164.1014 C.3     1  UNL1        0.0431
      4 C         143.7338  139.2539  163.5457 C.3     1  UNL1        0.0921
      5 S         143.7712  138.6681  162.1653 S.3     1  UNL1       -0.0787
      6 C         142.5195  138.6112  161.3406 C.2     1  UNL1        0.1483
      7 N         142.5569  138.0254  159.9601 N.pl3   1  UNL1       -0.3380
      8 N         141.2305  139.1400  161.8962 N.2     1  UNL1       -0.2484
      9 C         141.1931  139.7258  163.2767 C.3     1  UNL1        0.1352
     10 C         139.9041  140.2546  163.8323 C.3     1  UNL1        0.1692
     11 O         139.8668  140.8404  165.2127 O.3     1  UNL1       -0.3446
     12 H         143.4030  137.6783  159.5955 H       1  UNL1        0.1442
     13 H         141.7354  137.9880  159.4188 H       1  UNL1        0.1442
     14 C         139.9415  139.6689  162.4519 C.ar    1  UNL1        0.0278
     15 C         139.5728  140.8231  161.5677 C.ar    1  UNL1        0.0021
     16 C         138.3211  140.7662  160.7430 C.ar    1  UNL1        0.0295
     17 C         137.4382  139.5550  160.8025 C.ar    1  UNL1        0.1424
     18 F         136.1866  139.4981  159.9778 F       1  UNL1       -0.2041
     19 C         137.8069  138.4008  161.6867 C.ar    1  UNL1        0.0590
     20 C         139.0585  138.4577  162.5114 C.ar    1  UNL1        0.1402
     21 F         139.4273  137.3036  163.3956 F       1  UNL1       -0.2044
     22 C         140.3533  144.2338  170.0578 C.3     1  UNL1        0.0556
     23 C         140.7293  143.0167  169.2658 C.ar    1  UNL1        0.0997
     24 C         141.3176  141.7522  169.8183 C.ar    1  UNL1        0.1958
     25 O         141.5349  140.8044  168.6762 O.2     1  UNL1       -0.4331
     26 C         141.0810  141.4831  167.4178 C.ar    1  UNL1        0.2327
     27 N         140.5831  142.8503  167.7822 N.ar    1  UNL1       -0.2144
     28 C         144.9854  139.3108  164.3704 C.3     1  UNL1        0.2044
     29 F         145.8176  140.5586  164.3854 F       1  UNL1       -0.2334
@<TRIPOS>BOND
     1    22    23    1
     2    23    24   ar
     3    24    25   ar
     4    25    26   ar
     5     1    26    1
     6     1     2    1
     7     3     2    1
     8     3     4    1
     9     4    28    1
    10    28    29    1
    11     4     5    1
    12     5     6    1
    13     6     7    1
    14     6     8    2
    15     8     9    1
    16     9    14    1
    17    14    15   ar
    18    15    16   ar
    19    16    17   ar
    20    17    18    1
    21    17    19   ar
    22    19    20   ar
    23    20    21    1
    24     9    10    1
    25    10    11    1
    26    26    27   ar
    27    27    23   ar
    28    11     1    1
    29     9     3    1
    30    20    14   ar
    31     7    12    1
    32     7    13    1
