@<TRIPOS>MOLECULE
*****
 35 38 0 0 0
SMALL
GASTEIGER

@<TRIPOS>ATOM
      1 C         142.4014  139.3265  164.5508 C.2     1  UNL1       -0.0208
      2 C         142.0286  140.7269  164.9379 C.2     1  UNL1        0.0137
      3 C         141.8738  141.0889  166.3853 C.2     1  UNL1        0.0806
      4 C         142.9128  141.7439  167.2463 C.2     1  UNL1        0.0203
      5 C         142.3340  141.9194  168.6190 C.2     1  UNL1        0.0154
      6 C         142.8983  142.5062  169.8788 C.2     1  UNL1        0.0009
      7 C         142.0658  142.5465  171.1259 C.2     1  UNL1       -0.0041
      8 C         140.6690  142.0000  171.1132 C.2     1  UNL1       -0.0198
      9 C         140.1046  141.4132  169.8534 C.3     1  UNL1        0.0717
     10 C         140.9371  141.3729  168.6063 C.2     1  UNL1        0.0633
     11 N         140.6527  140.8597  167.2258 N.2     1  UNL1       -0.2493
     12 C         142.5562  138.9644  163.1034 C.ar    1  UNL1        0.0000
     13 C         143.8002  139.3545  162.3616 C.ar    1  UNL1        0.0005
     14 C         143.9550  138.9925  160.9142 C.ar    1  UNL1        0.0114
     15 C         142.8658  138.2403  160.2086 C.ar    1  UNL1        0.0576
     16 CL        143.0206  137.8782  158.7612 Cl      1  UNL1       -0.0823
     17 C         141.6218  137.8501  160.9504 C.ar    1  UNL1        0.0152
     18 C         141.4670  138.2122  162.3978 C.ar    1  UNL1        0.0720
     19 C         140.2230  137.8221  163.1396 C.3     1  UNL1        0.4186
     20 F         138.9790  137.4319  163.8815 F       1  UNL1       -0.1659
     21 F         139.5556  139.0861  162.6852 F       1  UNL1       -0.1659
     22 F         140.8904  136.5580  163.5941 F       1  UNL1       -0.1659
     23 C         141.8106  141.7652  163.8776 C.ar    1  UNL1        0.0011
     24 C         142.9350  142.6721  163.4735 C.ar    1  UNL1        0.0000
     25 C         142.7170  143.7105  162.4132 C.ar    1  UNL1        0.0000
     26 C         141.3746  143.8419  161.7569 C.ar    1  UNL1        0.0000
     27 C         140.2502  142.9350  162.1609 C.ar    1  UNL1        0.0000
     28 C         140.4682  141.8966  163.2212 C.ar    1  UNL1        0.0000
     29 C         141.1565  144.8803  160.6965 C.2     1  UNL1        0.0012
     30 C         141.5603  144.6011  159.2791 C.2     1  UNL1        0.0151
     31 C         141.3423  145.6394  158.2189 C.2     1  UNL1        0.0729
     32 O         139.9485  146.0008  157.7983 O.co2   1  UNL1       -0.5446
     33 O         142.5180  146.3165  157.5790 O.co2   1  UNL1       -0.5446
     34 C         143.9546  138.1731  166.2850 C.3     1  UNL1        0.0050
     35 C         142.6194  138.2881  165.6112 C.3     1  UNL1        0.0264
@<TRIPOS>UNITY_ATOM_ATTR
32 1
charge -1
@<TRIPOS>BOND
     1    34    35    1
     2    35     1    1
     3     1     2    2
     4     2    23    1
     5    23    24   ar
     6    24    25   ar
     7    25    26   ar
     8    26    29    1
     9    29    30    2
    10    30    31    1
    11    31    32   ar
    12    31    33   ar
    13    26    27   ar
    14    27    28   ar
    15     2     3    1
    16     3     4    2
    17     4     5    1
    18     5     6    2
    19     6     7    1
    20     7     8    2
    21     8     9    1
    22     9    10    1
    23    10    11    2
    24     1    12    1
    25    12    13   ar
    26    13    14   ar
    27    14    15   ar
    28    15    16    1
    29    15    17   ar
    30    17    18   ar
    31    18    19    1
    32    19    20    1
    33    19    21    1
    34    19    22    1
    35    28    23   ar
    36    11     3    1
    37    18    12   ar
    38    10     5    1
@<TRIPOS>MOLECULE
*****
 35 38 0 0 0
SMALL
GASTEIGER

@<TRIPOS>ATOM
      1 C         140.7321  139.8796  163.8239 C.2     1  UNL1       -0.0208
      2 C         140.9955  141.3229  164.1361 C.2     1  UNL1        0.0137
      3 C         141.2413  141.7512  165.5525 C.2     1  UNL1        0.0806
      4 C         140.2415  142.3992  166.4638 C.2     1  UNL1        0.0203
      5 C         140.9123  142.6552  167.7808 C.2     1  UNL1        0.0154
      6 C         140.4180  143.2709  169.0560 C.2     1  UNL1        0.0009
      7 C         141.3380  143.3970  170.2339 C.2     1  UNL1       -0.0041
      8 C         142.7525  142.9073  170.1366 C.2     1  UNL1       -0.0198
      9 C         143.2469  142.2915  168.8613 C.3     1  UNL1        0.0717
     10 C         142.3268  142.1655  167.6834 C.2     1  UNL1        0.0633
     11 N         142.5301  141.6068  166.3062 N.2     1  UNL1       -0.2493
     12 C         140.4863  139.4513  162.4075 C.ar    1  UNL1        0.0000
     13 C         139.1077  139.5451  161.8242 C.ar    1  UNL1        0.0005
     14 C         138.8619  139.1168  160.4078 C.ar    1  UNL1        0.0114
     15 C         139.9948  138.5947  159.5748 C.ar    1  UNL1        0.0576
     16 CL        139.7490  138.1665  158.1584 Cl      1  UNL1       -0.0823
     17 C         141.3735  138.5009  160.1582 C.ar    1  UNL1        0.0152
     18 C         141.6193  138.9292  161.5745 C.ar    1  UNL1        0.0720
     19 C         142.9980  138.8354  162.1579 C.3     1  UNL1        0.4186
     20 F         144.3768  138.7417  162.7413 F       1  UNL1       -0.1659
     21 F         142.6427  137.5205  162.7862 F       1  UNL1       -0.1659
     22 F         143.3533  140.1503  161.5297 F       1  UNL1       -0.1659
     23 C         141.0131  142.3379  163.0318 C.ar    1  UNL1        0.0011
     24 C         139.7274  142.9339  162.5403 C.ar    1  UNL1        0.0000
     25 C         139.7450  143.9489  161.4360 C.ar    1  UNL1        0.0000
     26 C         141.0484  144.3680  160.8232 C.ar    1  UNL1        0.0000
     27 C         142.3342  143.7720  161.3148 C.ar    1  UNL1        0.0000
     28 C         142.3166  142.7570  162.4190 C.ar    1  UNL1        0.0000
     29 C         141.0661  145.3830  159.7189 C.2     1  UNL1        0.0012
     30 C         140.4104  145.0741  158.4057 C.2     1  UNL1        0.0151
     31 C         140.4281  146.0891  157.3015 C.2     1  UNL1        0.0729
     32 O         141.5228  146.0631  156.2763 O.co2   1  UNL1       -0.5446
     33 O         139.3511  147.1302  157.2224 O.co2   1  UNL1       -0.5446
     34 C         139.8301  137.6576  164.8234 C.3     1  UNL1        0.0050
     35 C         140.7145  138.8645  164.9282 C.3     1  UNL1        0.0264
@<TRIPOS>UNITY_ATOM_ATTR
32 1
charge -1
@<TRIPOS>BOND
     1    34    35    1
     2    35     1    1
     3     1     2    2
     4     2    23    1
     5    23    24   ar
     6    24    25   ar
     7    25    26   ar
     8    26    29    1
     9    29    30    2
    10    30    31    1
    11    31    32   ar
    12    31    33   ar
    13    26    27   ar
    14    27    28   ar
    15     2     3    1
    16     3     4    2
    17     4     5    1
    18     5     6    2
    19     6     7    1
    20     7     8    2
    21     8     9    1
    22     9    10    1
    23    10    11    2
    24     1    12    1
    25    12    13   ar
    26    13    14   ar
    27    14    15   ar
    28    15    16    1
    29    15    17   ar
    30    17    18   ar
    31    18    19    1
    32    19    20    1
    33    19    21    1
    34    19    22    1
    35    28    23   ar
    36    11     3    1
    37    18    12   ar
    38    10     5    1
@<TRIPOS>MOLECULE
*****
 35 38 0 0 0
SMALL
GASTEIGER

@<TRIPOS>ATOM
      1 C         140.5011  142.9506  163.8416 C.2     1  UNL1       -0.0208
      2 C         140.9764  141.5629  164.1549 C.2     1  UNL1        0.0137
      3 C         141.0252  141.0902  165.5776 C.2     1  UNL1        0.0806
      4 C         142.2368  140.5701  166.2928 C.2     1  UNL1        0.0203
      5 C         141.8314  140.2129  167.6922 C.2     1  UNL1        0.0154
      6 C         142.6047  139.6538  168.8494 C.2     1  UNL1        0.0009
      7 C         141.9159  139.3941  170.1563 C.2     1  UNL1       -0.0041
      8 C         140.4537  139.6935  170.3059 C.2     1  UNL1       -0.0198
      9 C         139.6804  140.2526  169.1487 C.3     1  UNL1        0.0717
     10 C         140.3692  140.5123  167.8418 C.2     1  UNL1        0.0633
     11 N         139.8710  141.0545  166.5349 N.2     1  UNL1       -0.2493
     12 C         140.4523  143.4234  162.4189 C.ar    1  UNL1        0.0000
     13 C         139.3529  142.9574  161.5110 C.ar    1  UNL1        0.0005
     14 C         139.3042  143.4302  160.0883 C.ar    1  UNL1        0.0114
     15 C         140.3547  144.3689  159.5734 C.ar    1  UNL1        0.0576
     16 CL        140.3059  144.8417  158.1507 Cl      1  UNL1       -0.0823
     17 C         141.4541  144.8350  160.4813 C.ar    1  UNL1        0.0152
     18 C         141.5029  144.3622  161.9041 C.ar    1  UNL1        0.0720
     19 C         142.6022  144.8282  162.8120 C.3     1  UNL1        0.4186
     20 F         143.7015  145.2943  163.7199 F       1  UNL1       -0.1659
     21 F         143.4789  143.7141  162.3222 F       1  UNL1       -0.1659
     22 F         141.7254  145.9423  163.3017 F       1  UNL1       -0.1659
     23 C         141.4030  140.6480  163.0455 C.ar    1  UNL1        0.0011
     24 C         142.8203  140.6740  162.5549 C.ar    1  UNL1        0.0000
     25 C         143.2468  139.7589  161.4455 C.ar    1  UNL1        0.0000
     26 C         142.2561  138.8180  160.8266 C.ar    1  UNL1        0.0000
     27 C         140.8388  138.7920  161.3171 C.ar    1  UNL1        0.0000
     28 C         140.4123  139.7069  162.4266 C.ar    1  UNL1        0.0000
     29 C         142.6827  137.9030  159.7171 C.2     1  UNL1        0.0012
     30 C         142.4447  138.2944  158.2888 C.2     1  UNL1        0.0151
     31 C         142.8713  137.3794  157.1794 C.2     1  UNL1        0.0729
     32 O         144.0178  137.7616  156.2909 O.co2   1  UNL1       -0.5446
     33 O         142.1513  136.0820  156.9585 O.co2   1  UNL1       -0.5446
     34 C         138.8346  144.6968  164.8028 C.3     1  UNL1        0.0050
     35 C         140.0744  143.8657  164.9510 C.3     1  UNL1        0.0264
@<TRIPOS>UNITY_ATOM_ATTR
32 1
charge -1
@<TRIPOS>BOND
     1    34    35    1
     2    35     1    1
     3     1     2    2
     4     2    23    1
     5    23    24   ar
     6    24    25   ar
     7    25    26   ar
     8    26    29    1
     9    29    30    2
    10    30    31    1
    11    31    32   ar
    12    31    33   ar
    13    26    27   ar
    14    27    28   ar
    15     2     3    1
    16     3     4    2
    17     4     5    1
    18     5     6    2
    19     6     7    1
    20     7     8    2
    21     8     9    1
    22     9    10    1
    23    10    11    2
    24     1    12    1
    25    12    13   ar
    26    13    14   ar
    27    14    15   ar
    28    15    16    1
    29    15    17   ar
    30    17    18   ar
    31    18    19    1
    32    19    20    1
    33    19    21    1
    34    19    22    1
    35    28    23   ar
    36    11     3    1
    37    18    12   ar
    38    10     5    1
@<TRIPOS>MOLECULE
*****
 35 38 0 0 0
SMALL
GASTEIGER

@<TRIPOS>ATOM
      1 C         141.3022  139.7298  163.5521 C.2     1  UNL1       -0.0208
      2 C         141.4207  141.1899  163.8742 C.2     1  UNL1        0.0137
      3 C         141.5414  141.6358  165.3013 C.2     1  UNL1        0.0806
      4 C         140.4457  142.2318  166.1345 C.2     1  UNL1        0.0203
      5 C         141.0061  142.5283  167.4939 C.2     1  UNL1        0.0154
      6 C         140.3896  143.1208  168.7263 C.2     1  UNL1        0.0009
      7 C         141.2151  143.3006  169.9656 C.2     1  UNL1       -0.0041
      8 C         142.6572  142.8879  169.9726 C.2     1  UNL1       -0.0198
      9 C         143.2737  142.2954  168.7403 C.3     1  UNL1        0.0717
     10 C         142.4482  142.1156  167.5009 C.2     1  UNL1        0.0633
     11 N         142.7790  141.5640  166.1458 N.2     1  UNL1       -0.2493
     12 C         141.1816  139.2839  162.1250 C.ar    1  UNL1        0.0000
     13 C         142.4156  139.0008  161.3208 C.ar    1  UNL1        0.0005
     14 C         142.2950  138.5549  159.8937 C.ar    1  UNL1        0.0114
     15 C         140.9402  138.3921  159.2708 C.ar    1  UNL1        0.0576
     16 CL        140.8195  137.9462  157.8437 Cl      1  UNL1       -0.0823
     17 C         139.7060  138.6752  160.0750 C.ar    1  UNL1        0.0152
     18 C         139.8267  139.1211  161.5021 C.ar    1  UNL1        0.0720
     19 C         138.5926  139.4042  162.3063 C.3     1  UNL1        0.4186
     20 F         137.3584  139.6874  163.1106 F       1  UNL1       -0.1659
     21 F         138.6124  137.9992  162.8313 F       1  UNL1       -0.1659
     22 F         138.5728  140.8092  161.7814 F       1  UNL1       -0.1659
     23 C         141.4185  142.2042  162.7691 C.ar    1  UNL1        0.0011
     24 C         142.6634  142.4420  161.9668 C.ar    1  UNL1        0.0000
     25 C         142.6611  143.4564  160.8617 C.ar    1  UNL1        0.0000
     26 C         141.4140  144.2329  160.5590 C.ar    1  UNL1        0.0000
     27 C         140.1691  143.9952  161.3614 C.ar    1  UNL1        0.0000
     28 C         140.1714  142.9808  162.4664 C.ar    1  UNL1        0.0000
     29 C         141.4118  145.2473  159.4540 C.2     1  UNL1        0.0012
     30 C         140.3285  145.2239  158.4167 C.2     1  UNL1        0.0151
     31 C         140.3263  146.2383  157.3117 C.2     1  UNL1        0.0729
     32 O         139.2146  147.2408  157.2161 O.co2   1  UNL1       -0.5446
     33 O         141.4358  146.2502  156.3022 O.co2   1  UNL1       -0.5446
     34 C         141.2993  137.2512  164.3312 C.3     1  UNL1        0.0050
     35 C         141.3044  138.7154  164.6571 C.3     1  UNL1        0.0264
@<TRIPOS>UNITY_ATOM_ATTR
32 1
charge -1
@<TRIPOS>BOND
     1    34    35    1
     2    35     1    1
     3     1     2    2
     4     2    23    1
     5    23    24   ar
     6    24    25   ar
     7    25    26   ar
     8    26    29    1
     9    29    30    2
    10    30    31    1
    11    31    32   ar
    12    31    33   ar
    13    26    27   ar
    14    27    28   ar
    15     2     3    1
    16     3     4    2
    17     4     5    1
    18     5     6    2
    19     6     7    1
    20     7     8    2
    21     8     9    1
    22     9    10    1
    23    10    11    2
    24     1    12    1
    25    12    13   ar
    26    13    14   ar
    27    14    15   ar
    28    15    16    1
    29    15    17   ar
    30    17    18   ar
    31    18    19    1
    32    19    20    1
    33    19    21    1
    34    19    22    1
    35    28    23   ar
    36    11     3    1
    37    18    12   ar
    38    10     5    1
@<TRIPOS>MOLECULE
*****
 35 38 0 0 0
SMALL
GASTEIGER

@<TRIPOS>ATOM
      1 C         139.3532  140.7844  162.0018 C.2     1  UNL1       -0.0208
      2 C         140.3978  141.8508  162.1483 C.2     1  UNL1        0.0137
      3 C         140.7152  142.7534  160.9931 C.2     1  UNL1        0.0806
      4 C         141.9141  142.6507  160.0974 C.2     1  UNL1        0.0203
      5 C         141.8293  143.7510  159.0814 C.2     1  UNL1        0.0154
      6 C         142.7298  144.1413  157.9471 C.2     1  UNL1        0.0009
      7 C         142.3791  145.3144  157.0806 C.2     1  UNL1       -0.0041
      8 C         141.1279  146.0972  157.3484 C.2     1  UNL1       -0.0198
      9 C         140.2274  145.7069  158.4827 C.3     1  UNL1        0.0717
     10 C         140.5781  144.5338  159.3492 C.2     1  UNL1        0.0633
     11 N         139.8896  143.9173  160.5307 N.2     1  UNL1       -0.2493
     12 C         139.0357  139.8818  163.1571 C.ar    1  UNL1        0.0000
     13 C         138.1256  140.3557  164.2511 C.ar    1  UNL1        0.0005
     14 C         137.8082  139.4531  165.4063 C.ar    1  UNL1        0.0114
     15 C         138.4008  138.0766  165.4675 C.ar    1  UNL1        0.0576
     16 CL        138.0834  137.1740  166.6227 Cl      1  UNL1       -0.0823
     17 C         139.3110  137.6026  164.3734 C.ar    1  UNL1        0.0152
     18 C         139.6285  138.5052  163.2182 C.ar    1  UNL1        0.0720
     19 C         140.5386  138.0312  162.1241 C.3     1  UNL1        0.4186
     20 F         141.4488  137.5573  161.0300 F       1  UNL1       -0.1659
     21 F         139.3554  137.5026  161.3688 F       1  UNL1       -0.1659
     22 F         141.7218  138.5598  162.8794 F       1  UNL1       -0.1659
     23 C         141.1250  142.0146  163.4499 C.ar    1  UNL1        0.0011
     24 C         142.4375  141.3221  163.6681 C.ar    1  UNL1        0.0000
     25 C         143.1647  141.4859  164.9698 C.ar    1  UNL1        0.0000
     26 C         142.5793  142.3422  166.0533 C.ar    1  UNL1        0.0000
     27 C         141.2668  143.0348  165.8351 C.ar    1  UNL1        0.0000
     28 C         140.5396  142.8710  164.5335 C.ar    1  UNL1        0.0000
     29 C         143.3065  142.5061  167.3550 C.2     1  UNL1        0.0012
     30 C         142.5403  142.5301  168.6443 C.2     1  UNL1        0.0151
     31 C         143.2675  142.6939  169.9459 C.2     1  UNL1        0.0729
     32 O         142.5001  142.7318  171.2342 O.co2   1  UNL1       -0.5446
     33 O         144.7622  142.8199  169.9594 O.co2   1  UNL1       -0.5446
     34 C         139.3385  140.0510  159.5094 C.3     1  UNL1        0.0050
     35 C         138.6259  140.6206  160.7001 C.3     1  UNL1        0.0264
@<TRIPOS>UNITY_ATOM_ATTR
32 1
charge -1
@<TRIPOS>BOND
     1    34    35    1
     2    35     1    1
     3     1     2    2
     4     2    23    1
     5    23    24   ar
     6    24    25   ar
     7    25    26   ar
     8    26    29    1
     9    29    30    2
    10    30    31    1
    11    31    32   ar
    12    31    33   ar
    13    26    27   ar
    14    27    28   ar
    15     2     3    1
    16     3     4    2
    17     4     5    1
    18     5     6    2
    19     6     7    1
    20     7     8    2
    21     8     9    1
    22     9    10    1
    23    10    11    2
    24     1    12    1
    25    12    13   ar
    26    13    14   ar
    27    14    15   ar
    28    15    16    1
    29    15    17   ar
    30    17    18   ar
    31    18    19    1
    32    19    20    1
    33    19    21    1
    34    19    22    1
    35    28    23   ar
    36    11     3    1
    37    18    12   ar
    38    10     5    1
@<TRIPOS>MOLECULE
*****
 35 38 0 0 0
SMALL
GASTEIGER

@<TRIPOS>ATOM
      1 C         143.0223  141.1562  159.7856 C.2     1  UNL1       -0.0208
      2 C         142.2776  139.8811  160.0488 C.2     1  UNL1        0.0137
      3 C         142.0930  138.8794  158.9477 C.2     1  UNL1        0.0806
      4 C         140.8812  138.7425  158.0743 C.2     1  UNL1        0.0203
      5 C         141.1270  137.6172  157.1134 C.2     1  UNL1        0.0154
      6 C         140.2852  137.0291  156.0200 C.2     1  UNL1        0.0009
      7 C         140.8072  135.8823  155.2062 C.2     1  UNL1       -0.0041
      8 C         142.1710  135.3237  155.4857 C.2     1  UNL1       -0.0198
      9 C         143.0127  135.9119  156.5790 C.3     1  UNL1        0.0717
     10 C         142.4907  137.0586  157.3929 C.2     1  UNL1        0.0633
     11 N         143.0877  137.8387  158.5265 N.2     1  UNL1       -0.2493
     12 C         143.2069  142.1579  160.8868 C.ar    1  UNL1        0.0000
     13 C         144.2861  141.9582  161.9092 C.ar    1  UNL1        0.0005
     14 C         144.4707  142.9599  163.0104 C.ar    1  UNL1        0.0114
     15 C         143.5762  144.1613  163.0891 C.ar    1  UNL1        0.0576
     16 CL        143.7608  145.1630  164.1903 Cl      1  UNL1       -0.0823
     17 C         142.4969  144.3611  162.0667 C.ar    1  UNL1        0.0152
     18 C         142.3123  143.3594  160.9655 C.ar    1  UNL1        0.0720
     19 C         141.2331  143.5592  159.9431 C.3     1  UNL1        0.4186
     20 F         140.1538  143.7589  158.9206 F       1  UNL1       -0.1659
     21 F         140.2706  142.8047  160.8116 F       1  UNL1       -0.1659
     22 F         142.1955  144.3136  159.0746 F       1  UNL1       -0.1659
     23 C         141.7175  139.6076  161.4132 C.ar    1  UNL1        0.0011
     24 C         142.5549  138.9055  162.4407 C.ar    1  UNL1        0.0000
     25 C         141.9948  138.6320  163.8051 C.ar    1  UNL1        0.0000
     26 C         140.5973  139.0606  164.1419 C.ar    1  UNL1        0.0000
     27 C         139.7600  139.7627  163.1143 C.ar    1  UNL1        0.0000
     28 C         140.3200  140.0362  161.7500 C.ar    1  UNL1        0.0000
     29 C         140.0372  138.7871  165.5063 C.2     1  UNL1        0.0012
     30 C         138.5820  139.0254  165.7812 C.2     1  UNL1        0.0151
     31 C         138.0220  138.7519  167.1456 C.2     1  UNL1        0.0729
     32 O         138.5848  139.4588  168.3429 O.co2   1  UNL1       -0.5446
     33 O         136.8990  137.7714  167.3127 O.co2   1  UNL1       -0.5446
     34 C         144.7609  142.3443  158.2639 C.3     1  UNL1        0.0050
     35 C         143.5824  141.4298  158.4212 C.3     1  UNL1        0.0264
@<TRIPOS>UNITY_ATOM_ATTR
32 1
charge -1
@<TRIPOS>BOND
     1    34    35    1
     2    35     1    1
     3     1     2    2
     4     2    23    1
     5    23    24   ar
     6    24    25   ar
     7    25    26   ar
     8    26    29    1
     9    29    30    2
    10    30    31    1
    11    31    32   ar
    12    31    33   ar
    13    26    27   ar
    14    27    28   ar
    15     2     3    1
    16     3     4    2
    17     4     5    1
    18     5     6    2
    19     6     7    1
    20     7     8    2
    21     8     9    1
    22     9    10    1
    23    10    11    2
    24     1    12    1
    25    12    13   ar
    26    13    14   ar
    27    14    15   ar
    28    15    16    1
    29    15    17   ar
    30    17    18   ar
    31    18    19    1
    32    19    20    1
    33    19    21    1
    34    19    22    1
    35    28    23   ar
    36    11     3    1
    37    18    12   ar
    38    10     5    1
@<TRIPOS>MOLECULE
*****
 35 38 0 0 0
SMALL
GASTEIGER

@<TRIPOS>ATOM
      1 C         141.3686  140.9731  159.1771 C.2     1  UNL1       -0.0208
      2 C         141.0684  139.5333  159.4719 C.2     1  UNL1        0.0137
      3 C         141.3367  138.4836  158.4345 C.2     1  UNL1        0.0806
      4 C         142.6213  137.7304  158.2540 C.2     1  UNL1        0.0203
      5 C         142.4461  136.7841  157.1035 C.2     1  UNL1        0.0154
      6 C         143.3749  135.7909  156.4704 C.2     1  UNL1        0.0009
      7 C         142.9108  134.9660  155.3067 C.2     1  UNL1       -0.0041
      8 C         141.5179  135.1343  154.7762 C.2     1  UNL1       -0.0198
      9 C         140.5891  136.1275  155.4093 C.3     1  UNL1        0.0717
     10 C         141.0532  136.9524  156.5729 C.2     1  UNL1        0.0633
     11 N         140.3676  138.0027  157.3956 N.2     1  UNL1       -0.2493
     12 C         141.1003  142.0228  160.2145 C.ar    1  UNL1        0.0000
     13 C         142.1052  142.2808  161.2978 C.ar    1  UNL1        0.0005
     14 C         141.8369  143.3305  162.3352 C.ar    1  UNL1        0.0114
     15 C         140.5637  144.1222  162.2892 C.ar    1  UNL1        0.0576
     16 CL        140.2954  145.1719  163.3266 Cl      1  UNL1       -0.0823
     17 C         139.5588  143.8642  161.2059 C.ar    1  UNL1        0.0152
     18 C         139.8271  142.8145  160.1685 C.ar    1  UNL1        0.0720
     19 C         138.8222  142.5565  159.0852 C.3     1  UNL1        0.4186
     20 F         137.8172  142.2985  158.0019 F       1  UNL1       -0.1659
     21 F         138.1166  141.5750  159.9735 F       1  UNL1       -0.1659
     22 F         139.5277  143.5379  158.1970 F       1  UNL1       -0.1659
     23 C         140.4999  139.1433  160.8040 C.ar    1  UNL1        0.0011
     24 C         139.0205  138.9518  160.9611 C.ar    1  UNL1        0.0000
     25 C         138.4520  138.5617  162.2934 C.ar    1  UNL1        0.0000
     26 C         139.3630  138.3631  163.4684 C.ar    1  UNL1        0.0000
     27 C         140.8424  138.5546  163.3113 C.ar    1  UNL1        0.0000
     28 C         141.4109  138.9447  161.9792 C.ar    1  UNL1        0.0000
     29 C         138.7945  137.9731  164.8006 C.2     1  UNL1        0.0012
     30 C         138.4503  139.0301  165.8077 C.2     1  UNL1        0.0151
     31 C         137.8818  138.6400  167.1398 C.2     1  UNL1        0.0729
     32 O         136.7878  137.6167  167.2179 O.co2   1  UNL1       -0.5446
     33 O         138.4074  139.2732  168.3941 O.co2   1  UNL1       -0.5446
     34 C         142.7305  142.6290  157.7097 C.3     1  UNL1        0.0050
     35 C         141.9372  141.3632  157.8449 C.3     1  UNL1        0.0264
@<TRIPOS>UNITY_ATOM_ATTR
32 1
charge -1
@<TRIPOS>BOND
     1    34    35    1
     2    35     1    1
     3     1     2    2
     4     2    23    1
     5    23    24   ar
     6    24    25   ar
     7    25    26   ar
     8    26    29    1
     9    29    30    2
    10    30    31    1
    11    31    32   ar
    12    31    33   ar
    13    26    27   ar
    14    27    28   ar
    15     2     3    1
    16     3     4    2
    17     4     5    1
    18     5     6    2
    19     6     7    1
    20     7     8    2
    21     8     9    1
    22     9    10    1
    23    10    11    2
    24     1    12    1
    25    12    13   ar
    26    13    14   ar
    27    14    15   ar
    28    15    16    1
    29    15    17   ar
    30    17    18   ar
    31    18    19    1
    32    19    20    1
    33    19    21    1
    34    19    22    1
    35    28    23   ar
    36    11     3    1
    37    18    12   ar
    38    10     5    1
@<TRIPOS>MOLECULE
*****
 35 38 0 0 0
SMALL
GASTEIGER

@<TRIPOS>ATOM
      1 C         140.4464  142.6517  163.5703 C.2     1  UNL1       -0.0208
      2 C         140.9944  141.2973  163.9098 C.2     1  UNL1        0.0137
      3 C         141.1050  140.8708  165.3436 C.2     1  UNL1        0.0806
      4 C         142.3200  140.2822  165.9972 C.2     1  UNL1        0.0203
      5 C         141.9859  140.0056  167.4331 C.2     1  UNL1        0.0154
      6 C         142.7925  139.4274  168.5579 C.2     1  UNL1        0.0009
      7 C         142.1774  139.2668  169.9165 C.2     1  UNL1       -0.0041
      8 C         140.7558  139.6845  170.1504 C.2     1  UNL1       -0.0198
      9 C         139.9493  140.2627  169.0256 C.3     1  UNL1        0.0717
     10 C         140.5643  140.4232  167.6670 C.2     1  UNL1        0.0633
     11 N         140.0199  140.9579  166.3756 N.2     1  UNL1       -0.2493
     12 C         140.3359  143.0783  162.1365 C.ar    1  UNL1        0.0000
     13 C         141.4533  143.8452  161.4939 C.ar    1  UNL1        0.0005
     14 C         141.3428  144.2717  160.0601 C.ar    1  UNL1        0.0114
     15 C         140.1147  143.9313  159.2689 C.ar    1  UNL1        0.0576
     16 CL        140.0042  144.3579  157.8351 Cl      1  UNL1       -0.0823
     17 C         138.9972  143.1644  159.9115 C.ar    1  UNL1        0.0152
     18 C         139.1077  142.7378  161.3453 C.ar    1  UNL1        0.0720
     19 C         137.9903  141.9709  161.9880 C.3     1  UNL1        0.4186
     20 F         136.8727  141.2040  162.6307 F       1  UNL1       -0.1659
     21 F         138.5485  140.6935  161.4343 F       1  UNL1       -0.1659
     22 F         137.4320  143.2483  162.5417 F       1  UNL1       -0.1659
     23 C         141.4318  140.3695  162.8154 C.ar    1  UNL1        0.0011
     24 C         140.6564  139.1151  162.5410 C.ar    1  UNL1        0.0000
     25 C         141.0939  138.1872  161.4466 C.ar    1  UNL1        0.0000
     26 C         142.3067  138.5137  160.6266 C.ar    1  UNL1        0.0000
     27 C         143.0822  139.7681  160.9010 C.ar    1  UNL1        0.0000
     28 C         142.6447  140.6959  161.9954 C.ar    1  UNL1        0.0000
     29 C         142.7442  137.5858  159.5322 C.2     1  UNL1        0.0012
     30 C         142.5449  137.9726  158.0967 C.2     1  UNL1        0.0151
     31 C         142.9823  137.0447  157.0023 C.2     1  UNL1        0.0729
     32 O         144.1243  137.4259  156.1076 O.co2   1  UNL1       -0.5446
     33 O         142.2779  135.7355  156.8027 O.co2   1  UNL1       -0.5446
     34 C         139.3736  144.8949  164.3235 C.3     1  UNL1        0.0050
     35 C         140.0090  143.5797  164.6647 C.3     1  UNL1        0.0264
@<TRIPOS>UNITY_ATOM_ATTR
32 1
charge -1
@<TRIPOS>BOND
     1    34    35    1
     2    35     1    1
     3     1     2    2
     4     2    23    1
     5    23    24   ar
     6    24    25   ar
     7    25    26   ar
     8    26    29    1
     9    29    30    2
    10    30    31    1
    11    31    32   ar
    12    31    33   ar
    13    26    27   ar
    14    27    28   ar
    15     2     3    1
    16     3     4    2
    17     4     5    1
    18     5     6    2
    19     6     7    1
    20     7     8    2
    21     8     9    1
    22     9    10    1
    23    10    11    2
    24     1    12    1
    25    12    13   ar
    26    13    14   ar
    27    14    15   ar
    28    15    16    1
    29    15    17   ar
    30    17    18   ar
    31    18    19    1
    32    19    20    1
    33    19    21    1
    34    19    22    1
    35    28    23   ar
    36    11     3    1
    37    18    12   ar
    38    10     5    1
@<TRIPOS>MOLECULE
*****
 35 38 0 0 0
SMALL
GASTEIGER

@<TRIPOS>ATOM
      1 C         141.1676  140.9030  158.9048 C.2     1  UNL1       -0.0208
      2 C         140.9812  139.4578  159.2604 C.2     1  UNL1        0.0137
      3 C         141.3340  138.3896  158.2682 C.2     1  UNL1        0.0806
      4 C         140.4106  137.7961  157.2459 C.2     1  UNL1        0.0203
      5 C         141.1781  136.7671  156.4698 C.2     1  UNL1        0.0154
      6 C         140.7847  135.8633  155.3392 C.2     1  UNL1        0.0009
      7 C         141.7892  134.9171  154.7512 C.2     1  UNL1       -0.0041
      8 C         143.1869  134.8747  155.2939 C.2     1  UNL1       -0.0198
      9 C         143.5803  135.7785  156.4245 C.3     1  UNL1        0.0717
     10 C         142.5758  136.7247  157.0125 C.2     1  UNL1        0.0633
     11 N         142.6722  137.7275  158.1239 N.2     1  UNL1       -0.2493
     12 C         140.8148  141.9711  159.8971 C.ar    1  UNL1        0.0000
     13 C         139.3765  142.2519  160.2172 C.ar    1  UNL1        0.0005
     14 C         139.0237  143.3200  161.2095 C.ar    1  UNL1        0.0114
     15 C         140.1092  144.1074  161.8816 C.ar    1  UNL1        0.0576
     16 CL        139.7563  145.1755  162.8739 Cl      1  UNL1       -0.0823
     17 C         141.5475  143.8266  161.5616 C.ar    1  UNL1        0.0152
     18 C         141.9003  142.7585  160.5693 C.ar    1  UNL1        0.0720
     19 C         143.3386  142.4777  160.2492 C.3     1  UNL1        0.4186
     20 F         144.7769  142.1969  159.9290 F       1  UNL1       -0.1659
     21 F         143.3601  141.3993  161.2915 F       1  UNL1       -0.1659
     22 F         143.3171  143.5560  159.2068 F       1  UNL1       -0.1659
     23 C         140.4420  139.0807  160.6084 C.ar    1  UNL1        0.0011
     24 C         139.0067  138.6696  160.7538 C.ar    1  UNL1        0.0000
     25 C         138.4675  138.2925  162.1019 C.ar    1  UNL1        0.0000
     26 C         139.3635  138.3265  163.3044 C.ar    1  UNL1        0.0000
     27 C         140.7987  138.7375  163.1589 C.ar    1  UNL1        0.0000
     28 C         141.3380  139.1146  161.8110 C.ar    1  UNL1        0.0000
     29 C         138.8243  137.9494  164.6524 C.2     1  UNL1        0.0012
     30 C         138.5145  139.0153  165.6612 C.2     1  UNL1        0.0151
     31 C         137.9753  138.6381  167.0092 C.2     1  UNL1        0.0729
     32 O         136.9031  137.5953  167.1231 O.co2   1  UNL1       -0.5446
     33 O         138.5083  139.3038  168.2432 O.co2   1  UNL1       -0.5446
     34 C         141.1573  142.4759  156.8369 C.3     1  UNL1        0.0050
     35 C         141.7069  141.2801  157.5568 C.3     1  UNL1        0.0264
@<TRIPOS>UNITY_ATOM_ATTR
32 1
charge -1
@<TRIPOS>BOND
     1    34    35    1
     2    35     1    1
     3     1     2    2
     4     2    23    1
     5    23    24   ar
     6    24    25   ar
     7    25    26   ar
     8    26    29    1
     9    29    30    2
    10    30    31    1
    11    31    32   ar
    12    31    33   ar
    13    26    27   ar
    14    27    28   ar
    15     2     3    1
    16     3     4    2
    17     4     5    1
    18     5     6    2
    19     6     7    1
    20     7     8    2
    21     8     9    1
    22     9    10    1
    23    10    11    2
    24     1    12    1
    25    12    13   ar
    26    13    14   ar
    27    14    15   ar
    28    15    16    1
    29    15    17   ar
    30    17    18   ar
    31    18    19    1
    32    19    20    1
    33    19    21    1
    34    19    22    1
    35    28    23   ar
    36    11     3    1
    37    18    12   ar
    38    10     5    1
