@<TRIPOS>MOLECULE
*****
 33 37 0 0 0
SMALL
GASTEIGER

@<TRIPOS>ATOM
      1 C         141.1427  142.1392  165.8053 C.ar    1  UNL1        0.0561
      2 C         139.7703  142.7448  165.8171 C.ar    1  UNL1        0.0093
      3 C         139.1615  143.2474  164.5417 C.ar    1  UNL1        0.0553
      4 C         137.8377  143.8877  164.2456 C.ar    1  UNL1        0.1235
      5 N         137.7830  144.1804  162.7754 N.ar    1  UNL1       -0.1620
      6 N         139.0730  143.7211  162.1630 N.ar    1  UNL1       -0.2093
      7 C         139.9249  143.1444  163.2546 C.ar    1  UNL1        0.1492
      8 N         141.2972  142.5389  163.2429 N.ar    1  UNL1       -0.2786
      9 C         142.0606  142.4359  161.9558 C.3     1  UNL1        0.1350
     10 C         141.9061  142.0363  164.5183 C.ar    1  UNL1        0.2619
     11 O         143.2784  141.4307  164.5066 O.2     1  UNL1       -0.2669
     12 C         139.4455  143.8209  160.7134 C.ar    1  UNL1        0.1390
     13 C         139.0440  142.7352  159.7594 C.ar    1  UNL1        0.1599
     14 F         138.2700  141.5498  160.2550 F       1  UNL1       -0.2025
     15 C         139.4166  142.8350  158.3098 C.ar    1  UNL1        0.0313
     16 C         140.1905  144.0204  157.8142 C.ar    1  UNL1        0.0047
     17 C         140.5920  145.1061  158.7683 C.ar    1  UNL1        0.0313
     18 C         140.2195  145.0064  160.2178 C.ar    1  UNL1        0.1599
     19 F         140.6210  146.0921  161.1718 F       1  UNL1       -0.2025
     20 C         140.8984  139.2420  166.5444 C.3     1  UNL1        0.0310
     21 C         141.6295  140.1880  167.4503 C.ar    1  UNL1       -0.0217
     22 C         142.2383  139.6854  168.7257 C.ar    1  UNL1       -0.0041
     23 C         142.9694  140.6315  169.6316 C.ar    1  UNL1        0.0042
     24 C         143.0915  142.0801  169.2621 C.ar    1  UNL1        0.0533
     25 C         142.4826  142.5827  167.9867 C.ar    1  UNL1        0.0043
     26 C         141.7516  141.6366  167.0808 C.ar    1  UNL1        0.0008
     27 C         143.8226  143.0261  170.1680 C.2     1  UNL1        0.2458
     28 O         143.0756  143.7716  171.2340 O.2     1  UNL1       -0.2701
     29 N         145.3004  143.2267  170.0078 N.am    1  UNL1       -0.3025
     30 H         145.7906  142.7374  169.3081 H       1  UNL1        0.1497
     31 C         146.0314  144.1728  170.9137 C.3     1  UNL1        0.0720
     32 C         146.0303  145.3771  171.8079 C.3     1  UNL1        0.0213
     33 C         147.2986  144.6069  171.5886 C.3     1  UNL1        0.0213
@<TRIPOS>BOND
     1    20    21    1
     2    21    22   ar
     3    22    23   ar
     4    23    24   ar
     5    24    27    1
     6    27    28    2
     7    27    29   am
     8    29    31    1
     9    31    32    1
    10    32    33    1
    11    24    25   ar
    12    25    26   ar
    13    26     1    1
    14     1     2   ar
    15     2     3   ar
    16     3     4   ar
    17     4     5   ar
    18     5     6   ar
    19     6    12    1
    20    12    13   ar
    21    13    14    1
    22    13    15   ar
    23    15    16   ar
    24    16    17   ar
    25    17    18   ar
    26    18    19    1
    27     6     7   ar
    28     7     8   ar
    29     8     9    1
    30     8    10   ar
    31    10    11    2
    32    26    21   ar
    33    10     1   ar
    34    33    31    1
    35     7     3   ar
    36    18    12   ar
    37    29    30    1
@<TRIPOS>MOLECULE
*****
 33 37 0 0 0
SMALL
GASTEIGER

@<TRIPOS>ATOM
      1 C         142.2729  139.9084  162.8929 C.ar    1  UNL1        0.0561
      2 C         143.0129  138.9548  163.7836 C.ar    1  UNL1        0.0093
      3 C         142.9443  139.1135  165.2736 C.ar    1  UNL1        0.0553
      4 C         143.5628  138.3334  166.3956 C.ar    1  UNL1        0.1235
      5 N         143.1365  138.9635  167.6883 N.ar    1  UNL1       -0.1620
      6 N         142.2545  140.1331  167.3653 N.ar    1  UNL1       -0.2093
      7 C         142.1357  140.2258  165.8729 C.ar    1  UNL1        0.1492
      8 N         141.3958  141.1793  164.9822 N.ar    1  UNL1       -0.2786
      9 C         140.5872  142.2915  165.5815 C.3     1  UNL1        0.1350
     10 C         141.4644  141.0205  163.4922 C.ar    1  UNL1        0.2619
     11 O         140.7244  141.9741  162.6016 O.2     1  UNL1       -0.2669
     12 C         141.6053  141.0490  168.3601 C.ar    1  UNL1        0.1390
     13 C         142.3397  142.2594  168.8557 C.ar    1  UNL1        0.1599
     14 F         143.7232  142.5538  168.3566 F       1  UNL1       -0.2025
     15 C         141.6905  143.1754  169.8505 C.ar    1  UNL1        0.0313
     16 C         140.3070  142.8810  170.3496 C.ar    1  UNL1        0.0047
     17 C         139.5726  141.6706  169.8539 C.ar    1  UNL1        0.0313
     18 C         140.2217  140.7546  168.8592 C.ar    1  UNL1        0.1599
     19 F         139.4873  139.5442  168.3635 F       1  UNL1       -0.2025
     20 C         140.4034  138.0220  161.4977 C.3     1  UNL1        0.0310
     21 C         141.4068  138.8065  160.7052 C.ar    1  UNL1       -0.0217
     22 C         141.4754  138.6478  159.2153 C.ar    1  UNL1       -0.0041
     23 C         142.4788  139.4322  158.4229 C.ar    1  UNL1        0.0042
     24 C         143.4135  140.3754  159.1205 C.ar    1  UNL1        0.0533
     25 C         143.3449  140.5341  160.6105 C.ar    1  UNL1        0.0043
     26 C         142.3415  139.7496  161.4028 C.ar    1  UNL1        0.0008
     27 C         144.4169  141.1598  158.3281 C.2     1  UNL1        0.2458
     28 O         144.7216  142.5806  158.7008 O.2     1  UNL1       -0.2701
     29 N         145.1155  140.5236  157.1631 N.am    1  UNL1       -0.3025
     30 H         144.9155  139.5912  156.9186 H       1  UNL1        0.1497
     31 C         146.1189  141.3082  156.3708 C.3     1  UNL1        0.0720
     32 C         147.1989  142.3473  156.3079 C.3     1  UNL1        0.0213
     33 C         146.7768  141.6278  155.0612 C.3     1  UNL1        0.0213
@<TRIPOS>BOND
     1    20    21    1
     2    21    22   ar
     3    22    23   ar
     4    23    24   ar
     5    24    27    1
     6    27    28    2
     7    27    29   am
     8    29    31    1
     9    31    32    1
    10    32    33    1
    11    24    25   ar
    12    25    26   ar
    13    26     1    1
    14     1     2   ar
    15     2     3   ar
    16     3     4   ar
    17     4     5   ar
    18     5     6   ar
    19     6    12    1
    20    12    13   ar
    21    13    14    1
    22    13    15   ar
    23    15    16   ar
    24    16    17   ar
    25    17    18   ar
    26    18    19    1
    27     6     7   ar
    28     7     8   ar
    29     8     9    1
    30     8    10   ar
    31    10    11    2
    32    26    21   ar
    33    10     1   ar
    34    33    31    1
    35     7     3   ar
    36    18    12   ar
    37    29    30    1
@<TRIPOS>MOLECULE
*****
 33 37 0 0 0
SMALL
GASTEIGER

@<TRIPOS>ATOM
      1 C         140.3140  141.7317  165.8565 C.ar    1  UNL1        0.0561
      2 C         139.4990  142.9636  165.5951 C.ar    1  UNL1        0.0093
      3 C         139.0948  143.3119  164.1932 C.ar    1  UNL1        0.0553
      4 C         138.2983  144.4526  163.6323 C.ar    1  UNL1        0.1235
      5 N         138.2169  144.2740  162.1452 N.ar    1  UNL1       -0.1620
      6 N         138.9630  143.0230  161.7870 N.ar    1  UNL1       -0.2093
      7 C         139.5056  142.4284  163.0528 C.ar    1  UNL1        0.1492
      8 N         140.3206  141.1966  163.3142 N.ar    1  UNL1       -0.2786
      9 C         140.7314  140.3130  162.1737 C.3     1  UNL1        0.1350
     10 C         140.7248  140.8483  164.7161 C.ar    1  UNL1        0.2619
     11 O         141.5399  139.6164  164.9775 O.2     1  UNL1       -0.2669
     12 C         139.1362  142.4647  160.4056 C.ar    1  UNL1        0.1390
     13 C         138.3252  141.2812  159.9679 C.ar    1  UNL1        0.1599
     14 F         137.3410  140.6560  160.9117 F       1  UNL1       -0.2025
     15 C         138.4983  140.7228  158.5865 C.ar    1  UNL1        0.0313
     16 C         139.4824  141.3479  157.6428 C.ar    1  UNL1        0.0047
     17 C         140.2935  142.5315  158.0806 C.ar    1  UNL1        0.0313
     18 C         140.1204  143.0898  159.4619 C.ar    1  UNL1        0.1599
     19 F         140.9314  144.2733  159.8996 F       1  UNL1       -0.2025
     20 C         143.0834  142.3655  166.8204 C.3     1  UNL1        0.0310
     21 C         142.1029  141.7003  167.7404 C.ar    1  UNL1       -0.0217
     22 C         142.5071  141.3520  169.1423 C.ar    1  UNL1       -0.0041
     23 C         141.5267  140.6868  170.0622 C.ar    1  UNL1        0.0042
     24 C         140.1420  140.3700  169.5802 C.ar    1  UNL1        0.0533
     25 C         139.7378  140.7183  168.1784 C.ar    1  UNL1        0.0043
     26 C         140.7183  141.3834  167.2584 C.ar    1  UNL1        0.0008
     27 C         139.1615  139.7048  170.5002 C.2     1  UNL1        0.2458
     28 O         139.6363  139.0860  171.7815 O.2     1  UNL1       -0.2701
     29 N         137.7065  139.6585  170.1388 N.am    1  UNL1       -0.3025
     30 H         137.3949  140.0646  169.2978 H       1  UNL1        0.1497
     31 C         136.7260  138.9933  171.0588 C.3     1  UNL1        0.0720
     32 C         135.4601  139.0406  171.8620 C.3     1  UNL1        0.0213
     33 C         136.2940  137.7938  171.8490 C.3     1  UNL1        0.0213
@<TRIPOS>BOND
     1    20    21    1
     2    21    22   ar
     3    22    23   ar
     4    23    24   ar
     5    24    27    1
     6    27    28    2
     7    27    29   am
     8    29    31    1
     9    31    32    1
    10    32    33    1
    11    24    25   ar
    12    25    26   ar
    13    26     1    1
    14     1     2   ar
    15     2     3   ar
    16     3     4   ar
    17     4     5   ar
    18     5     6   ar
    19     6    12    1
    20    12    13   ar
    21    13    14    1
    22    13    15   ar
    23    15    16   ar
    24    16    17   ar
    25    17    18   ar
    26    18    19    1
    27     6     7   ar
    28     7     8   ar
    29     8     9    1
    30     8    10   ar
    31    10    11    2
    32    26    21   ar
    33    10     1   ar
    34    33    31    1
    35     7     3   ar
    36    18    12   ar
    37    29    30    1
@<TRIPOS>MOLECULE
*****
 33 37 0 0 0
SMALL
GASTEIGER

@<TRIPOS>ATOM
      1 C         141.6254  138.5027  158.7683 C.ar    1  UNL1        0.0561
      2 C         140.2337  139.0080  158.5273 C.ar    1  UNL1        0.0093
      3 C         139.3640  139.3920  159.6875 C.ar    1  UNL1        0.0553
      4 C         137.9610  139.9178  159.7593 C.ar    1  UNL1        0.1235
      5 N         137.6158  140.1215  161.2047 N.ar    1  UNL1       -0.1620
      6 N         138.8054  139.7217  162.0263 N.ar    1  UNL1       -0.2093
      7 C         139.8859  139.2708  161.0885 C.ar    1  UNL1        0.1492
      8 N         141.2775  138.7656  161.3294 N.ar    1  UNL1       -0.2786
      9 C         141.7994  138.6444  162.7305 C.3     1  UNL1        0.1350
     10 C         142.1473  138.3816  160.1693 C.ar    1  UNL1        0.2619
     11 O         143.5390  137.8763  160.4102 O.2     1  UNL1       -0.2669
     12 C         138.8982  139.7651  163.5227 C.ar    1  UNL1        0.1390
     13 C         138.7195  138.5084  164.3220 C.ar    1  UNL1        0.1599
     14 F         138.4481  137.2083  163.6248 F       1  UNL1       -0.2025
     15 C         138.8124  138.5518  165.8186 C.ar    1  UNL1        0.0313
     16 C         139.0838  139.8518  166.5157 C.ar    1  UNL1        0.0047
     17 C         139.2625  141.1085  165.7164 C.ar    1  UNL1        0.0313
     18 C         139.1697  141.0652  164.2200 C.ar    1  UNL1        0.1599
     19 F         139.3483  142.3219  163.4207 F       1  UNL1       -0.2025
     20 C         143.2021  140.6016  157.3162 C.3     1  UNL1        0.0310
     21 C         143.2836  139.1681  156.8820 C.ar    1  UNL1       -0.0217
     22 C         144.1534  138.7840  155.7218 C.ar    1  UNL1       -0.0041
     23 C         144.2348  137.3505  155.2877 C.ar    1  UNL1        0.0042
     24 C         143.4465  136.3011  156.0138 C.ar    1  UNL1        0.0533
     25 C         142.5767  136.6852  157.1740 C.ar    1  UNL1        0.0043
     26 C         142.4953  138.1187  157.6081 C.ar    1  UNL1        0.0008
     27 C         143.5279  134.8676  155.5797 C.2     1  UNL1        0.2458
     28 O         142.8431  134.4253  154.3205 O.2     1  UNL1       -0.2701
     29 N         144.2941  133.8765  156.4047 N.am    1  UNL1       -0.3025
     30 H         144.7435  134.1668  157.2311 H       1  UNL1        0.1497
     31 C         144.3755  132.4430  155.9705 C.3     1  UNL1        0.0720
     32 C         144.0254  131.3595  154.9940 C.3     1  UNL1        0.0213
     33 C         144.8665  131.0435  156.1952 C.3     1  UNL1        0.0213
@<TRIPOS>BOND
     1    20    21    1
     2    21    22   ar
     3    22    23   ar
     4    23    24   ar
     5    24    27    1
     6    27    28    2
     7    27    29   am
     8    29    31    1
     9    31    32    1
    10    32    33    1
    11    24    25   ar
    12    25    26   ar
    13    26     1    1
    14     1     2   ar
    15     2     3   ar
    16     3     4   ar
    17     4     5   ar
    18     5     6   ar
    19     6    12    1
    20    12    13   ar
    21    13    14    1
    22    13    15   ar
    23    15    16   ar
    24    16    17   ar
    25    17    18   ar
    26    18    19    1
    27     6     7   ar
    28     7     8   ar
    29     8     9    1
    30     8    10   ar
    31    10    11    2
    32    26    21   ar
    33    10     1   ar
    34    33    31    1
    35     7     3   ar
    36    18    12   ar
    37    29    30    1
@<TRIPOS>MOLECULE
*****
 33 37 0 0 0
SMALL
GASTEIGER

@<TRIPOS>ATOM
      1 C         142.1736  140.4907  162.2360 C.ar    1  UNL1        0.0561
      2 C         141.2827  141.6474  162.5803 C.ar    1  UNL1        0.0093
      3 C         141.0246  141.9936  164.0168 C.ar    1  UNL1        0.0553
      4 C         140.1982  143.0693  164.6571 C.ar    1  UNL1        0.1235
      5 N         140.3203  142.9237  166.1450 N.ar    1  UNL1       -0.1620
      6 N         141.2221  141.7580  166.4243 N.ar    1  UNL1       -0.2093
      7 C         141.6574  141.1832  165.1090 C.ar    1  UNL1        0.1492
      8 N         142.5483  140.0266  164.7647 N.ar    1  UNL1       -0.2786
      9 C         143.1811  139.2162  165.8568 C.3     1  UNL1        0.1350
     10 C         142.8063  139.6803  163.3282 C.ar    1  UNL1        0.2619
     11 O         143.6972  138.5236  162.9839 O.2     1  UNL1       -0.2669
     12 C         141.6189  141.2555  167.7807 C.ar    1  UNL1        0.1390
     13 C         140.7592  140.2512  168.4895 C.ar    1  UNL1        0.1599
     14 F         139.5027  139.7495  167.8418 F       1  UNL1       -0.2025
     15 C         141.1560  139.7486  169.8460 C.ar    1  UNL1        0.0313
     16 C         142.4124  140.2503  170.4937 C.ar    1  UNL1        0.0047
     17 C         143.2721  141.2546  169.7849 C.ar    1  UNL1        0.0313
     18 C         142.8754  141.7572  168.4284 C.ar    1  UNL1        0.1599
     19 F         143.7351  142.7614  167.7197 F       1  UNL1       -0.2025
     20 C         140.6184  138.2878  160.9213 C.3     1  UNL1        0.0310
     21 C         141.6541  139.0429  160.1421 C.ar    1  UNL1       -0.0217
     22 C         141.9121  138.6967  158.7056 C.ar    1  UNL1       -0.0041
     23 C         142.9478  139.4519  157.9265 C.ar    1  UNL1        0.0042
     24 C         143.7254  140.5533  158.5839 C.ar    1  UNL1        0.0533
     25 C         143.4673  140.8996  160.0203 C.ar    1  UNL1        0.0043
     26 C         142.4317  140.1444  160.7995 C.ar    1  UNL1        0.0008
     27 C         144.7611  141.3086  157.8047 C.2     1  UNL1        0.2458
     28 O         145.0339  142.7495  158.1202 O.2     1  UNL1       -0.2701
     29 N         145.5239  140.6229  156.7102 N.am    1  UNL1       -0.3025
     30 H         145.3449  139.6772  156.5032 H       1  UNL1        0.1497
     31 C         146.5596  141.3782  155.9311 C.3     1  UNL1        0.0720
     32 C         146.9816  142.0876  154.6787 C.3     1  UNL1        0.0213
     33 C         147.9315  141.9770  155.8343 C.3     1  UNL1        0.0213
@<TRIPOS>BOND
     1    20    21    1
     2    21    22   ar
     3    22    23   ar
     4    23    24   ar
     5    24    27    1
     6    27    28    2
     7    27    29   am
     8    29    31    1
     9    31    32    1
    10    32    33    1
    11    24    25   ar
    12    25    26   ar
    13    26     1    1
    14     1     2   ar
    15     2     3   ar
    16     3     4   ar
    17     4     5   ar
    18     5     6   ar
    19     6    12    1
    20    12    13   ar
    21    13    14    1
    22    13    15   ar
    23    15    16   ar
    24    16    17   ar
    25    17    18   ar
    26    18    19    1
    27     6     7   ar
    28     7     8   ar
    29     8     9    1
    30     8    10   ar
    31    10    11    2
    32    26    21   ar
    33    10     1   ar
    34    33    31    1
    35     7     3   ar
    36    18    12   ar
    37    29    30    1
@<TRIPOS>MOLECULE
*****
 33 37 0 0 0
SMALL
GASTEIGER

@<TRIPOS>ATOM
      1 C         142.0186  140.4328  162.3664 C.ar    1  UNL1        0.0561
      2 C         141.1140  141.5741  162.7261 C.ar    1  UNL1        0.0093
      3 C         140.8810  141.9210  164.1666 C.ar    1  UNL1        0.0553
      4 C         140.0488  142.9837  164.8211 C.ar    1  UNL1        0.1235
      5 N         140.2060  142.8461  166.3065 N.ar    1  UNL1       -0.1620
      6 N         141.1353  141.6985  166.5700 N.ar    1  UNL1       -0.2093
      7 C         141.5524  141.1268  165.2475 C.ar    1  UNL1        0.1492
      8 N         142.4569  139.9855  164.8878 N.ar    1  UNL1       -0.2786
      9 C         143.1284  139.1912  165.9687 C.3     1  UNL1        0.1350
     10 C         142.6900  139.6386  163.4472 C.ar    1  UNL1        0.2619
     11 O         143.5946  138.4973  163.0875 O.2     1  UNL1       -0.2669
     12 C         141.5709  141.2086  167.9192 C.ar    1  UNL1        0.1390
     13 C         142.8441  141.7180  168.5269 C.ar    1  UNL1        0.1599
     14 F         143.6818  142.7173  167.7853 F       1  UNL1       -0.2025
     15 C         143.2798  141.2282  169.8761 C.ar    1  UNL1        0.0313
     16 C         142.4422  140.2290  170.6176 C.ar    1  UNL1        0.0047
     17 C         141.1688  139.7196  170.0098 C.ar    1  UNL1        0.0313
     18 C         140.7332  140.2094  168.6607 C.ar    1  UNL1        0.1599
     19 F         139.4599  139.7000  168.0531 F       1  UNL1       -0.2025
     20 C         140.4188  138.2503  161.0714 C.3     1  UNL1        0.0310
     21 C         141.4518  138.9945  160.2782 C.ar    1  UNL1       -0.0217
     22 C         141.6849  138.6476  158.8376 C.ar    1  UNL1       -0.0041
     23 C         142.7179  139.3919  158.0446 C.ar    1  UNL1        0.0042
     24 C         143.5178  140.4832  158.6921 C.ar    1  UNL1        0.0533
     25 C         143.2847  140.8301  160.1327 C.ar    1  UNL1        0.0043
     26 C         142.2517  140.0858  160.9257 C.ar    1  UNL1        0.0008
     27 C         144.5508  141.2275  157.8990 C.2     1  UNL1        0.2458
     28 O         144.7848  142.6869  158.1551 O.2     1  UNL1       -0.2701
     29 N         145.3497  140.5124  156.8500 N.am    1  UNL1       -0.3025
     30 H         145.1961  139.5546  156.6820 H       1  UNL1        0.1497
     31 C         146.3827  141.2568  156.0570 C.3     1  UNL1        0.0720
     32 C         147.0666  141.5344  154.7512 C.3     1  UNL1        0.0213
     33 C         147.4880  142.2686  155.9895 C.3     1  UNL1        0.0213
@<TRIPOS>BOND
     1    20    21    1
     2    21    22   ar
     3    22    23   ar
     4    23    24   ar
     5    24    27    1
     6    27    28    2
     7    27    29   am
     8    29    31    1
     9    31    32    1
    10    32    33    1
    11    24    25   ar
    12    25    26   ar
    13    26     1    1
    14     1     2   ar
    15     2     3   ar
    16     3     4   ar
    17     4     5   ar
    18     5     6   ar
    19     6    12    1
    20    12    13   ar
    21    13    14    1
    22    13    15   ar
    23    15    16   ar
    24    16    17   ar
    25    17    18   ar
    26    18    19    1
    27     6     7   ar
    28     7     8   ar
    29     8     9    1
    30     8    10   ar
    31    10    11    2
    32    26    21   ar
    33    10     1   ar
    34    33    31    1
    35     7     3   ar
    36    18    12   ar
    37    29    30    1
@<TRIPOS>MOLECULE
*****
 33 37 0 0 0
SMALL
GASTEIGER

@<TRIPOS>ATOM
      1 C         141.1355  141.6563  167.2180 C.ar    1  UNL1        0.0561
      2 C         139.8017  141.1960  166.7087 C.ar    1  UNL1        0.0093
      3 C         139.3859  141.5126  165.3028 C.ar    1  UNL1        0.0553
      4 C         138.1415  141.1937  164.5283 C.ar    1  UNL1        0.1235
      5 N         138.2903  141.7734  163.1529 N.ar    1  UNL1       -0.1620
      6 N         139.6266  142.4506  163.0773 N.ar    1  UNL1       -0.2093
      7 C         140.3037  142.2895  164.4060 C.ar    1  UNL1        0.1492
      8 N         141.6374  142.7497  164.9153 N.ar    1  UNL1       -0.2786
      9 C         142.5553  143.5265  164.0186 C.3     1  UNL1        0.1350
     10 C         142.0533  142.4331  166.3213 C.ar    1  UNL1        0.2619
     11 O         143.3871  142.8933  166.8305 O.2     1  UNL1       -0.2669
     12 C         140.1873  143.1638  161.8827 C.ar    1  UNL1        0.1390
     13 C         141.0552  142.4252  160.9074 C.ar    1  UNL1        0.1599
     14 F         141.3623  140.9734  161.1267 F       1  UNL1       -0.2025
     15 C         141.6160  143.1383  159.7128 C.ar    1  UNL1        0.0313
     16 C         141.3089  144.5900  159.4936 C.ar    1  UNL1        0.0047
     17 C         140.4410  145.3286  160.4689 C.ar    1  UNL1        0.0313
     18 C         139.8802  144.6156  161.6635 C.ar    1  UNL1        0.1599
     19 F         139.0124  145.3542  162.6388 F       1  UNL1       -0.2025
     20 C         140.3653  143.4947  169.4601 C.3     1  UNL1        0.0310
     21 C         141.1663  142.2589  169.7451 C.ar    1  UNL1       -0.0217
     22 C         141.5822  141.9423  171.1510 C.ar    1  UNL1       -0.0041
     23 C         142.3832  140.7065  171.4360 C.ar    1  UNL1        0.0042
     24 C         142.7684  139.7873  170.3149 C.ar    1  UNL1        0.0533
     25 C         142.3525  140.1039  168.9090 C.ar    1  UNL1        0.0043
     26 C         141.5514  141.3397  168.6240 C.ar    1  UNL1        0.0008
     27 C         143.5694  138.5515  170.5999 C.2     1  UNL1        0.2458
     28 O         143.4390  137.3514  169.7094 O.2     1  UNL1       -0.2701
     29 N         144.5007  138.5158  171.7752 N.am    1  UNL1       -0.3025
     30 H         144.5863  139.3034  172.3596 H       1  UNL1        0.1497
     31 C         145.3017  137.2799  172.0600 C.3     1  UNL1        0.0720
     32 C         146.5888  136.6342  172.4801 C.3     1  UNL1        0.0213
     33 C         145.4019  135.7851  172.1333 C.3     1  UNL1        0.0213
@<TRIPOS>BOND
     1    20    21    1
     2    21    22   ar
     3    22    23   ar
     4    23    24   ar
     5    24    27    1
     6    27    28    2
     7    27    29   am
     8    29    31    1
     9    31    32    1
    10    32    33    1
    11    24    25   ar
    12    25    26   ar
    13    26     1    1
    14     1     2   ar
    15     2     3   ar
    16     3     4   ar
    17     4     5   ar
    18     5     6   ar
    19     6    12    1
    20    12    13   ar
    21    13    14    1
    22    13    15   ar
    23    15    16   ar
    24    16    17   ar
    25    17    18   ar
    26    18    19    1
    27     6     7   ar
    28     7     8   ar
    29     8     9    1
    30     8    10   ar
    31    10    11    2
    32    26    21   ar
    33    10     1   ar
    34    33    31    1
    35     7     3   ar
    36    18    12   ar
    37    29    30    1
@<TRIPOS>MOLECULE
*****
 33 37 0 0 0
SMALL
GASTEIGER

@<TRIPOS>ATOM
      1 C         141.1324  140.8841  167.0384 C.ar    1  UNL1        0.0561
      2 C         141.5866  139.5129  166.6337 C.ar    1  UNL1        0.0093
      3 C         141.3599  139.0313  165.2314 C.ar    1  UNL1        0.0553
      4 C         141.6953  137.7391  164.5474 C.ar    1  UNL1        0.1235
      5 N         141.2216  137.8299  163.1271 N.ar    1  UNL1       -0.1620
      6 N         140.5934  139.1782  162.9332 N.ar    1  UNL1       -0.2093
      7 C         140.6789  139.9207  164.2338 C.ar    1  UNL1        0.1492
      8 N         140.2247  141.2918  164.6385 N.ar    1  UNL1       -0.2786
      9 C         139.5438  142.1812  163.6409 C.3     1  UNL1        0.1350
     10 C         140.4515  141.7734  166.0409 C.ar    1  UNL1        0.2619
     11 O         139.9972  143.1446  166.4456 O.2     1  UNL1       -0.2669
     12 C         139.9864  139.6935  161.6620 C.ar    1  UNL1        0.1390
     13 C         138.5419  139.4267  161.3587 C.ar    1  UNL1        0.1599
     14 F         137.7043  138.6446  162.3267 F       1  UNL1       -0.2025
     15 C         137.9347  139.9420  160.0875 C.ar    1  UNL1        0.0313
     16 C         138.7722  140.7241  159.1196 C.ar    1  UNL1        0.0047
     17 C         140.2169  140.9909  159.4230 C.ar    1  UNL1        0.0313
     18 C         140.8240  140.4756  160.6941 C.ar    1  UNL1        0.1599
     19 F         142.2685  140.7425  160.9974 F       1  UNL1       -0.2025
     20 C         139.1099  140.2913  169.1734 C.3     1  UNL1        0.0310
     21 C         140.3479  141.0694  169.5084 C.ar    1  UNL1       -0.0217
     22 C         140.5746  141.5510  170.9107 C.ar    1  UNL1       -0.0041
     23 C         141.8126  142.3291  171.2455 C.ar    1  UNL1        0.0042
     24 C         142.8238  142.6255  170.1780 C.ar    1  UNL1        0.0533
     25 C         142.5971  142.1438  168.7757 C.ar    1  UNL1        0.0043
     26 C         141.3591  141.3658  168.4409 C.ar    1  UNL1        0.0008
     27 C         144.0618  143.4035  170.5128 C.2     1  UNL1        0.2458
     28 O         145.3522  143.0979  169.8117 O.2     1  UNL1       -0.2701
     29 N         144.0093  144.4871  171.5488 N.am    1  UNL1       -0.3025
     30 H         143.1624  144.6876  172.0089 H       1  UNL1        0.1497
     31 C         145.2474  145.2651  171.8835 C.3     1  UNL1        0.0720
     32 C         146.0405  146.0906  172.8528 C.3     1  UNL1        0.0213
     33 C         146.5986  145.7871  171.4939 C.3     1  UNL1        0.0213
@<TRIPOS>BOND
     1    20    21    1
     2    21    22   ar
     3    22    23   ar
     4    23    24   ar
     5    24    27    1
     6    27    28    2
     7    27    29   am
     8    29    31    1
     9    31    32    1
    10    32    33    1
    11    24    25   ar
    12    25    26   ar
    13    26     1    1
    14     1     2   ar
    15     2     3   ar
    16     3     4   ar
    17     4     5   ar
    18     5     6   ar
    19     6    12    1
    20    12    13   ar
    21    13    14    1
    22    13    15   ar
    23    15    16   ar
    24    16    17   ar
    25    17    18   ar
    26    18    19    1
    27     6     7   ar
    28     7     8   ar
    29     8     9    1
    30     8    10   ar
    31    10    11    2
    32    26    21   ar
    33    10     1   ar
    34    33    31    1
    35     7     3   ar
    36    18    12   ar
    37    29    30    1
@<TRIPOS>MOLECULE
*****
 33 37 0 0 0
SMALL
GASTEIGER

@<TRIPOS>ATOM
      1 C         142.9430  140.6232  163.0128 C.ar    1  UNL1        0.0561
      2 C         143.5106  139.5118  163.8452 C.ar    1  UNL1        0.0093
      3 C         143.2392  139.4654  165.3198 C.ar    1  UNL1        0.0553
      4 C         143.6611  138.5006  166.3880 C.ar    1  UNL1        0.1235
      5 N         143.0829  138.9692  167.6904 N.ar    1  UNL1       -0.1620
      6 N         142.3038  140.2237  167.4270 N.ar    1  UNL1       -0.2093
      7 C         142.4004  140.5303  165.9619 C.ar    1  UNL1        0.1492
      8 N         141.8329  141.6416  165.1294 N.ar    1  UNL1       -0.2786
      9 C         140.9940  142.7066  165.7715 C.3     1  UNL1        0.1350
     10 C         142.1042  141.6880  163.6549 C.ar    1  UNL1        0.2619
     11 O         141.5367  142.7994  162.8225 O.2     1  UNL1       -0.2669
     12 C         141.5588  141.0299  168.4493 C.ar    1  UNL1        0.1390
     13 C         140.1557  140.6543  168.8235 C.ar    1  UNL1        0.1599
     14 F         139.4975  139.4724  168.1753 F       1  UNL1       -0.2025
     15 C         139.4107  141.4605  169.8458 C.ar    1  UNL1        0.0313
     16 C         140.0689  142.6422  170.4939 C.ar    1  UNL1        0.0047
     17 C         141.4721  143.0178  170.1197 C.ar    1  UNL1        0.0313
     18 C         142.2171  142.2117  169.0974 C.ar    1  UNL1        0.1599
     19 F         143.6202  142.5873  168.7232 F       1  UNL1       -0.2025
     20 C         144.7830  142.7103  161.8912 C.3     1  UNL1        0.0310
     21 C         144.1344  141.7132  160.9774 C.ar    1  UNL1       -0.0217
     22 C         144.4057  141.7596  159.5029 C.ar    1  UNL1       -0.0041
     23 C         143.7570  140.7624  158.5892 C.ar    1  UNL1        0.0042
     24 C         142.8370  139.7188  159.1500 C.ar    1  UNL1        0.0533
     25 C         142.5657  139.6724  160.6245 C.ar    1  UNL1        0.0043
     26 C         143.2144  140.6696  161.5382 C.ar    1  UNL1        0.0008
     27 C         142.1884  138.7216  158.2363 C.2     1  UNL1        0.2458
     28 O         140.7583  138.9037  157.8217 O.2     1  UNL1       -0.2701
     29 N         142.9697  137.5424  157.7373 N.am    1  UNL1       -0.3025
     30 H         143.9083  137.4229  158.0094 H       1  UNL1        0.1497
     31 C         142.3209  136.5453  156.8236 C.3     1  UNL1        0.0720
     32 C         141.2077  136.1699  155.8909 C.3     1  UNL1        0.0213
     33 C         142.3106  135.1934  156.1737 C.3     1  UNL1        0.0213
@<TRIPOS>BOND
     1    20    21    1
     2    21    22   ar
     3    22    23   ar
     4    23    24   ar
     5    24    27    1
     6    27    28    2
     7    27    29   am
     8    29    31    1
     9    31    32    1
    10    32    33    1
    11    24    25   ar
    12    25    26   ar
    13    26     1    1
    14     1     2   ar
    15     2     3   ar
    16     3     4   ar
    17     4     5   ar
    18     5     6   ar
    19     6    12    1
    20    12    13   ar
    21    13    14    1
    22    13    15   ar
    23    15    16   ar
    24    16    17   ar
    25    17    18   ar
    26    18    19    1
    27     6     7   ar
    28     7     8   ar
    29     8     9    1
    30     8    10   ar
    31    10    11    2
    32    26    21   ar
    33    10     1   ar
    34    33    31    1
    35     7     3   ar
    36    18    12   ar
    37    29    30    1
