@<TRIPOS>MOLECULE
*****
 17 17 0 0 0
SMALL
GASTEIGER

@<TRIPOS>ATOM
      1 C         137.6291  141.2738  162.1227 C.3     1  UNL1        0.1697
      2 O         136.6050  141.3537  163.2157 O.3     1  UNL1       -0.3793
      3 H         136.6953  142.1993  163.6822 H       1  UNL1        0.2106
      4 C         138.5831  142.4106  161.9042 C.3     1  UNL1        0.1020
      5 N         138.1015  143.8265  162.0192 N.3     1  UNL1       -0.2964
      6 H         138.0014  144.1816  161.0683 H       1  UNL1        0.1233
      7 C         139.6436  145.9173  162.0350 C.3     1  UNL1        0.0171
      8 C         138.9137  144.8359  162.7751 C.3     1  UNL1        0.0541
      9 C         138.9960  144.7638  164.2712 C.3     1  UNL1        0.0171
     10 C         137.6993  140.0571  161.2481 C.3     1  UNL1        0.2358
     11 O         137.6855  138.6893  161.8635 O.3     1  UNL1       -0.4728
     12 C         138.8644  138.2129  162.6592 C.ar    1  UNL1        0.1387
     13 C         140.1685  137.9326  161.9731 C.ar    1  UNL1        0.0369
     14 C         141.3475  137.4562  162.7688 C.ar    1  UNL1        0.0031
     15 C         141.2224  137.2602  164.2506 C.ar    1  UNL1        0.0002
     16 C         139.9183  137.5405  164.9368 C.ar    1  UNL1        0.0031
     17 C         138.7394  138.0169  164.1411 C.ar    1  UNL1        0.0369
@<TRIPOS>BOND
     1     7     8    1
     2     8     9    1
     3     8     5    1
     4     5     4    1
     5     4     1    1
     6     1     2    1
     7     1    10    1
     8    10    11    1
     9    11    12    1
    10    12    13   ar
    11    13    14   ar
    12    14    15   ar
    13    15    16   ar
    14    16    17   ar
    15    17    12   ar
    16     5     6    1
    17     2     3    1
@<TRIPOS>MOLECULE
*****
 17 17 0 0 0
SMALL
GASTEIGER

@<TRIPOS>ATOM
      1 C         137.7759  141.3547  162.3210 C.3     1  UNL1        0.1697
      2 O         136.5626  141.2690  163.1988 O.3     1  UNL1       -0.3793
      3 H         136.0922  142.1171  163.1838 H       1  UNL1        0.2106
      4 C         138.0858  142.6285  161.5919 C.3     1  UNL1        0.1020
      5 N         137.7165  143.9492  162.1995 N.3     1  UNL1       -0.2964
      6 H         137.7469  144.6380  161.4478 H       1  UNL1        0.1233
      7 C         138.0837  144.2950  164.7482 C.3     1  UNL1        0.0171
      8 C         138.5276  144.5072  163.3312 C.3     1  UNL1        0.0541
      9 C         139.7828  145.2775  163.0458 C.3     1  UNL1        0.0171
     10 C         138.6793  140.1665  162.1721 C.3     1  UNL1        0.2358
     11 O         139.7858  139.9374  163.1587 O.3     1  UNL1       -0.4728
     12 C         139.4754  139.8302  164.6223 C.ar    1  UNL1        0.1387
     13 C         138.4870  138.8111  165.1066 C.ar    1  UNL1        0.0369
     14 C         138.1766  138.7038  166.5703 C.ar    1  UNL1        0.0031
     15 C         138.8545  139.6157  167.5495 C.ar    1  UNL1        0.0002
     16 C         139.8428  140.6348  167.0651 C.ar    1  UNL1        0.0031
     17 C         140.1533  140.7420  165.6015 C.ar    1  UNL1        0.0369
@<TRIPOS>BOND
     1     7     8    1
     2     8     9    1
     3     8     5    1
     4     5     4    1
     5     4     1    1
     6     1     2    1
     7     1    10    1
     8    10    11    1
     9    11    12    1
    10    12    13   ar
    11    13    14   ar
    12    14    15   ar
    13    15    16   ar
    14    16    17   ar
    15    17    12   ar
    16     5     6    1
    17     2     3    1
@<TRIPOS>MOLECULE
*****
 17 17 0 0 0
SMALL
GASTEIGER

@<TRIPOS>ATOM
      1 C         137.8839  141.6593  162.7715 C.3     1  UNL1        0.1697
      2 O         136.5180  141.2618  163.2470 O.3     1  UNL1       -0.3793
      3 H         135.8531  141.8388  162.8397 H       1  UNL1        0.2106
      4 C         138.0408  142.7995  161.8094 C.3     1  UNL1        0.1020
      5 N         137.7921  144.2062  162.2667 N.3     1  UNL1       -0.2964
      6 H         137.5444  144.7460  161.4374 H       1  UNL1        0.1233
      7 C         139.8131  145.8369  162.1877 C.3     1  UNL1        0.0171
      8 C         138.8748  144.9681  162.9718 C.3     1  UNL1        0.0541
      9 C         139.0192  144.8613  164.4610 C.3     1  UNL1        0.0171
     10 C         139.0930  140.9167  163.2579 C.3     1  UNL1        0.2358
     11 O         140.0526  141.5813  164.1999 O.3     1  UNL1       -0.4728
     12 C         139.9784  141.2966  165.6708 C.ar    1  UNL1        0.1387
     13 C         140.5842  142.2559  166.6519 C.ar    1  UNL1        0.0369
     14 C         140.5100  141.9712  168.1228 C.ar    1  UNL1        0.0031
     15 C         139.8299  140.7271  168.6125 C.ar    1  UNL1        0.0002
     16 C         139.2241  139.7678  167.6313 C.ar    1  UNL1        0.0031
     17 C         139.2983  140.0526  166.1605 C.ar    1  UNL1        0.0369
@<TRIPOS>BOND
     1     7     8    1
     2     8     9    1
     3     8     5    1
     4     5     4    1
     5     4     1    1
     6     1     2    1
     7     1    10    1
     8    10    11    1
     9    11    12    1
    10    12    13   ar
    11    13    14   ar
    12    14    15   ar
    13    15    16   ar
    14    16    17   ar
    15    17    12   ar
    16     5     6    1
    17     2     3    1
@<TRIPOS>MOLECULE
*****
 17 17 0 0 0
SMALL
GASTEIGER

@<TRIPOS>ATOM
      1 C         138.7619  144.9169  163.1491 C.3     1  UNL1        0.1697
      2 O         137.5388  144.4427  162.4217 O.3     1  UNL1       -0.3793
      3 H         137.6494  144.5944  161.4700 H       1  UNL1        0.2106
      4 C         139.9051  145.5147  162.3837 C.3     1  UNL1        0.1020
      5 N         141.1956  145.8241  163.0830 N.3     1  UNL1       -0.2964
      6 H         141.5813  146.6553  162.6349 H       1  UNL1        0.1233
      7 C         142.0860  143.4569  162.4886 C.3     1  UNL1        0.0171
      8 C         142.2932  144.8024  163.1184 C.3     1  UNL1        0.0541
      9 C         143.5980  145.1261  163.7837 C.3     1  UNL1        0.0171
     10 C         138.8419  144.7933  164.6418 C.3     1  UNL1        0.2358
     11 O         139.9097  143.9463  165.2682 O.3     1  UNL1       -0.4728
     12 C         139.6202  142.5191  165.6279 C.ar    1  UNL1        0.1387
     13 C         138.5788  141.7509  164.8694 C.ar    1  UNL1        0.0369
     14 C         138.2894  140.3237  165.2291 C.ar    1  UNL1        0.0031
     15 C         139.0414  139.6648  166.3473 C.ar    1  UNL1        0.0002
     16 C         140.0828  140.4330  167.1057 C.ar    1  UNL1        0.0031
     17 C         140.3722  141.8602  166.7460 C.ar    1  UNL1        0.0369
@<TRIPOS>BOND
     1     7     8    1
     2     8     9    1
     3     8     5    1
     4     5     4    1
     5     4     1    1
     6     1     2    1
     7     1    10    1
     8    10    11    1
     9    11    12    1
    10    12    13   ar
    11    13    14   ar
    12    14    15   ar
    13    15    16   ar
    14    16    17   ar
    15    17    12   ar
    16     5     6    1
    17     2     3    1
@<TRIPOS>MOLECULE
*****
 17 17 0 0 0
SMALL
GASTEIGER

@<TRIPOS>ATOM
      1 C         137.8561  143.8824  163.5179 C.3     1  UNL1        0.1697
      2 O         137.3510  144.8223  162.4637 O.3     1  UNL1       -0.3793
      3 H         137.6563  145.7220  162.6595 H       1  UNL1        0.2106
      4 C         138.6970  144.4025  164.6460 C.3     1  UNL1        0.1020
      5 N         139.9472  145.1780  164.3537 N.3     1  UNL1       -0.2964
      6 H         139.7961  145.6565  163.4657 H       1  UNL1        0.1233
      7 C         142.4687  145.1939  163.7276 C.3     1  UNL1        0.0171
      8 C         141.2629  144.4660  164.2435 C.3     1  UNL1        0.0541
      9 C         141.3728  143.0261  164.6494 C.3     1  UNL1        0.0171
     10 C         137.5203  142.4223  163.4441 C.3     1  UNL1        0.2358
     11 O         138.5996  141.4175  163.1694 O.3     1  UNL1       -0.4728
     12 C         138.6264  140.1207  163.9229 C.ar    1  UNL1        0.1387
     13 C         139.0415  138.8579  163.2279 C.ar    1  UNL1        0.0369
     14 C         139.0683  137.5612  163.9813 C.ar    1  UNL1        0.0031
     15 C         138.6800  137.5272  165.4298 C.ar    1  UNL1        0.0002
     16 C         138.2649  138.7899  166.1248 C.ar    1  UNL1        0.0031
     17 C         138.2381  140.0867  165.3713 C.ar    1  UNL1        0.0369
@<TRIPOS>BOND
     1     7     8    1
     2     8     9    1
     3     8     5    1
     4     5     4    1
     5     4     1    1
     6     1     2    1
     7     1    10    1
     8    10    11    1
     9    11    12    1
    10    12    13   ar
    11    13    14   ar
    12    14    15   ar
    13    15    16   ar
    14    16    17   ar
    15    17    12   ar
    16     5     6    1
    17     2     3    1
@<TRIPOS>MOLECULE
*****
 17 17 0 0 0
SMALL
GASTEIGER

@<TRIPOS>ATOM
      1 C         137.8676  143.7216  163.4466 C.3     1  UNL1        0.1697
      2 O         137.4179  144.7493  162.4508 O.3     1  UNL1       -0.3793
      3 H         136.9594  144.3101  161.7175 H       1  UNL1        0.2106
      4 C         137.5789  142.2691  163.2077 C.3     1  UNL1        0.1020
      5 N         137.3652  141.3458  164.3704 N.3     1  UNL1       -0.2964
      6 H         137.4884  141.9033  165.2156 H       1  UNL1        0.1233
      7 C         138.2554  139.3941  165.8361 C.3     1  UNL1        0.0171
      8 C         138.2240  140.1261  164.5272 C.3     1  UNL1        0.0541
      9 C         139.0516  139.6383  163.3751 C.3     1  UNL1        0.0171
     10 C         138.6059  144.1463  164.6813 C.3     1  UNL1        0.2358
     11 O         139.6980  143.2812  165.2370 O.3     1  UNL1       -0.4728
     12 C         141.1311  143.5793  164.9094 C.ar    1  UNL1        0.1387
     13 C         142.2224  142.7070  165.4553 C.ar    1  UNL1        0.0369
     14 C         143.6555  143.0052  165.1277 C.ar    1  UNL1        0.0031
     15 C         143.9973  144.1757  164.2542 C.ar    1  UNL1        0.0002
     16 C         142.9060  145.0480  163.7083 C.ar    1  UNL1        0.0031
     17 C         141.4729  144.7499  164.0359 C.ar    1  UNL1        0.0369
@<TRIPOS>BOND
     1     7     8    1
     2     8     9    1
     3     8     5    1
     4     5     4    1
     5     4     1    1
     6     1     2    1
     7     1    10    1
     8    10    11    1
     9    11    12    1
    10    12    13   ar
    11    13    14   ar
    12    14    15   ar
    13    15    16   ar
    14    16    17   ar
    15    17    12   ar
    16     5     6    1
    17     2     3    1
@<TRIPOS>MOLECULE
*****
 17 17 0 0 0
SMALL
GASTEIGER

@<TRIPOS>ATOM
      1 C         138.1863  138.9663  162.5444 C.3     1  UNL1        0.1697
      2 O         138.1650  137.6787  161.7753 O.3     1  UNL1       -0.3793
      3 H         137.6639  137.8010  160.9538 H       1  UNL1        0.2106
      4 C         137.4917  140.1782  161.9975 C.3     1  UNL1        0.1020
      5 N         136.9655  141.2267  162.9322 N.3     1  UNL1       -0.2964
      6 H         135.9865  141.3750  162.6871 H       1  UNL1        0.1233
      7 C         137.4980  143.4210  164.2172 C.3     1  UNL1        0.0171
      8 C         137.6098  142.5804  162.9799 C.3     1  UNL1        0.0541
      9 C         138.3659  143.0936  161.7903 C.3     1  UNL1        0.0171
     10 C         138.9021  139.0422  163.8604 C.3     1  UNL1        0.2358
     11 O         138.1843  139.5479  165.0765 O.3     1  UNL1       -0.4728
     12 C         138.9595  140.1671  166.2016 C.ar    1  UNL1        0.1387
     13 C         139.7956  141.3875  165.9537 C.ar    1  UNL1        0.0369
     14 C         140.5707  142.0068  167.0788 C.ar    1  UNL1        0.0031
     15 C         140.5097  141.4056  168.4516 C.ar    1  UNL1        0.0002
     16 C         139.6736  140.1852  168.6995 C.ar    1  UNL1        0.0031
     17 C         138.8985  139.5660  167.5744 C.ar    1  UNL1        0.0369
@<TRIPOS>BOND
     1     7     8    1
     2     8     9    1
     3     8     5    1
     4     5     4    1
     5     4     1    1
     6     1     2    1
     7     1    10    1
     8    10    11    1
     9    11    12    1
    10    12    13   ar
    11    13    14   ar
    12    14    15   ar
    13    15    16   ar
    14    16    17   ar
    15    17    12   ar
    16     5     6    1
    17     2     3    1
@<TRIPOS>MOLECULE
*****
 17 17 0 0 0
SMALL
GASTEIGER

@<TRIPOS>ATOM
      1 C         137.9944  141.6790  162.5532 C.3     1  UNL1        0.1697
      2 O         136.6996  141.1658  163.1100 O.3     1  UNL1       -0.3793
      3 H         135.9764  141.7536  162.8410 H       1  UNL1        0.2106
      4 C         138.0111  142.9277  161.7222 C.3     1  UNL1        0.1020
      5 N         137.7401  144.2575  162.3612 N.3     1  UNL1       -0.2964
      6 H         137.4844  144.8984  161.6101 H       1  UNL1        0.1233
      7 C         138.8083  144.8278  164.6598 C.3     1  UNL1        0.0171
      8 C         138.8104  144.9359  163.1637 C.3     1  UNL1        0.0541
      9 C         139.8829  145.7226  162.4701 C.3     1  UNL1        0.0171
     10 C         139.2726  140.9435  162.8274 C.3     1  UNL1        0.2358
     11 O         140.2195  141.4499  163.8748 O.3     1  UNL1       -0.4728
     12 C         141.3315  142.3815  163.4932 C.ar    1  UNL1        0.1387
     13 C         142.0357  143.1810  164.5490 C.ar    1  UNL1        0.0369
     14 C         143.1477  144.1126  164.1674 C.ar    1  UNL1        0.0031
     15 C         143.5555  144.2446  162.7300 C.ar    1  UNL1        0.0002
     16 C         142.8513  143.4451  161.6741 C.ar    1  UNL1        0.0031
     17 C         141.7393  142.5135  162.0558 C.ar    1  UNL1        0.0369
@<TRIPOS>BOND
     1     7     8    1
     2     8     9    1
     3     8     5    1
     4     5     4    1
     5     4     1    1
     6     1     2    1
     7     1    10    1
     8    10    11    1
     9    11    12    1
    10    12    13   ar
    11    13    14   ar
    12    14    15   ar
    13    15    16   ar
    14    16    17   ar
    15    17    12   ar
    16     5     6    1
    17     2     3    1
@<TRIPOS>MOLECULE
*****
 17 17 0 0 0
SMALL
GASTEIGER

@<TRIPOS>ATOM
      1 C         145.1715  141.8037  162.6120 C.3     1  UNL1        0.1697
      2 O         146.5306  141.8208  163.2464 O.3     1  UNL1       -0.3793
      3 H         146.8759  140.9156  163.2955 H       1  UNL1        0.2106
      4 C         144.5663  140.5042  162.1703 C.3     1  UNL1        0.1020
      5 N         144.5024  139.3452  163.1204 N.3     1  UNL1       -0.2964
      6 H         144.3628  138.5080  162.5547 H       1  UNL1        0.1233
      7 C         142.0887  139.8592  163.9326 C.3     1  UNL1        0.0171
      8 C         143.4615  139.3169  164.2000 C.3     1  UNL1        0.0541
      9 C         143.7932  138.7463  165.5470 C.3     1  UNL1        0.0171
     10 C         144.4176  143.0860  162.4193 C.3     1  UNL1        0.2358
     11 O         144.0649  143.9342  163.6051 O.3     1  UNL1       -0.4728
     12 C         143.1534  143.3959  164.6678 C.ar    1  UNL1        0.1387
     13 C         143.7270  142.6960  165.8640 C.ar    1  UNL1        0.0369
     14 C         142.8155  142.1577  166.9267 C.ar    1  UNL1        0.0031
     15 C         141.3302  142.3192  166.7931 C.ar    1  UNL1        0.0002
     16 C         140.7565  143.0191  165.5968 C.ar    1  UNL1        0.0031
     17 C         141.6681  143.5574  164.5342 C.ar    1  UNL1        0.0369
@<TRIPOS>BOND
     1     7     8    1
     2     8     9    1
     3     8     5    1
     4     5     4    1
     5     4     1    1
     6     1     2    1
     7     1    10    1
     8    10    11    1
     9    11    12    1
    10    12    13   ar
    11    13    14   ar
    12    14    15   ar
    13    15    16   ar
    14    16    17   ar
    15    17    12   ar
    16     5     6    1
    17     2     3    1
