@<TRIPOS>MOLECULE
*****
 31 33 0 0 0
SMALL
GASTEIGER

@<TRIPOS>ATOM
      1 C         139.0589  139.6725  167.3816 C.3     1  UNL1        0.0180
      2 C         138.8140  139.2563  165.9614 C.3     1  UNL1        0.0722
      3 N         139.5336  142.1687  162.6073 N.pl3   1  UNL1       -0.3023
      4 C         140.5291  141.0810  162.8827 C.3     1  UNL1        0.1082
      5 C         140.2893  140.1102  164.0007 C.3     1  UNL1        0.0938
      6 N         139.0538  140.2271  164.8434 N.3     1  UNL1       -0.2698
      7 C         138.0583  141.3148  164.5681 C.3     1  UNL1        0.0938
      8 C         138.2982  142.2857  163.4500 C.3     1  UNL1        0.1082
      9 C         140.3219  144.5039  161.7854 C.ar    1  UNL1        0.1519
     10 C         140.5618  145.4746  160.6673 C.ar    1  UNL1        0.0382
     11 C         140.2533  145.0810  159.2531 C.ar    1  UNL1        0.0032
     12 C         139.7049  143.7167  158.9570 C.ar    1  UNL1        0.0015
     13 C         139.4650  142.7459  160.0751 C.ar    1  UNL1        0.0176
     14 C         139.7735  143.1396  161.4892 C.ar    1  UNL1        0.0824
     15 C         142.0394  145.2245  163.5967 C.3     1  UNL1        0.2525
     16 O         140.6304  144.8975  163.1995 O.3     1  UNL1       -0.4702
     17 C         140.0222  140.7822  167.6824 C.3     1  UNL1        0.0107
     18 C         141.1918  140.5351  168.5885 C.3     1  UNL1        0.0508
     19 C         142.0891  140.4019  167.3940 C.ar    1  UNL1       -0.0179
     20 C         142.5176  141.6243  166.6377 C.ar    1  UNL1       -0.0034
     21 C         143.4149  141.4911  165.4431 C.ar    1  UNL1        0.0064
     22 C         143.8838  140.1354  165.0048 C.ar    1  UNL1        0.0345
     23 BR        144.7812  140.0021  163.8102 Br      1  UNL1       -0.0490
     24 C         143.4554  138.9129  165.7611 C.ar    1  UNL1        0.0064
     25 C         142.5580  139.0462  166.9557 C.ar    1  UNL1       -0.0034
     26 C         140.2944  140.6683  169.7831 C.2     1  UNL1        0.0534
     27 O         139.9560  139.4604  170.6054 O.co2   1  UNL1       -0.5489
     28 O         139.7355  142.0096  170.1554 O.co2   1  UNL1       -0.5489
     29 C         142.3613  140.2880  169.4947 C.3     1  UNL1        0.0086
     30 C         143.2317  141.4315  169.9246 C.3     1  UNL1        0.0007
     31 C         142.6605  138.8974  169.9708 C.3     1  UNL1        0.0007
@<TRIPOS>UNITY_ATOM_ATTR
27 1
charge -1
@<TRIPOS>BOND
     1    15    16    1
     2    16     9    1
     3     9    10   ar
     4    10    11   ar
     5    11    12   ar
     6    12    13   ar
     7    13    14   ar
     8    14     3    1
     9     3     4    1
    10     4     5    1
    11     5     6    1
    12     6     2    1
    13     2     1    1
    14     1    17    1
    15    17    18    1
    16    18    26    1
    17    26    27   ar
    18    26    28   ar
    19    18    19    1
    20    19    20   ar
    21    20    21   ar
    22    21    22   ar
    23    22    23    1
    24    22    24   ar
    25    24    25   ar
    26    18    29    1
    27    29    30    1
    28    29    31    1
    29     6     7    1
    30     7     8    1
    31    14     9   ar
    32     8     3    1
    33    25    19   ar
@<TRIPOS>MOLECULE
*****
 31 33 0 0 0
SMALL
GASTEIGER

@<TRIPOS>ATOM
      1 C         139.0106  139.6076  167.5556 C.3     1  UNL1        0.0180
      2 C         138.1968  139.5522  166.2968 C.3     1  UNL1        0.0722
      3 N         140.2084  138.7623  162.3498 N.pl3   1  UNL1       -0.3023
      4 C         139.9306  140.1718  162.7811 C.3     1  UNL1        0.1082
      5 C         139.2600  140.4351  164.0968 C.3     1  UNL1        0.0938
      6 N         138.8673  139.2889  164.9812 N.3     1  UNL1       -0.2698
      7 C         139.1452  137.8794  164.5498 C.3     1  UNL1        0.0938
      8 C         139.8158  137.6161  163.2341 C.3     1  UNL1        0.1082
      9 C         142.3107  138.0530  160.9979 C.ar    1  UNL1        0.1519
     10 C         142.9812  137.7897  159.6822 C.ar    1  UNL1        0.0382
     11 C         142.2200  137.9724  158.4027 C.ar    1  UNL1        0.0032
     12 C         140.7883  138.4184  158.4388 C.ar    1  UNL1        0.0015
     13 C         140.1178  138.6817  159.7545 C.ar    1  UNL1        0.0176
     14 C         140.8790  138.4990  161.0341 C.ar    1  UNL1        0.0824
     15 C         143.8145  139.0258  162.8799 C.3     1  UNL1        0.2525
     16 O         143.0718  137.8702  162.2774 O.3     1  UNL1       -0.4702
     17 C         140.4426  140.0512  167.5041 C.3     1  UNL1        0.0107
     18 C         140.8900  141.2362  168.3075 C.3     1  UNL1        0.0508
     19 C         141.1165  142.0088  167.0419 C.ar    1  UNL1       -0.0179
     20 C         142.3806  141.8116  166.2589 C.ar    1  UNL1       -0.0034
     21 C         142.6072  142.5842  164.9933 C.ar    1  UNL1        0.0064
     22 C         141.5696  143.5539  164.5106 C.ar    1  UNL1        0.0345
     23 BR        141.7961  144.3265  163.2450 Br      1  UNL1       -0.0490
     24 C         140.3055  143.7511  165.2936 C.ar    1  UNL1        0.0064
     25 C         140.0790  142.9785  166.5592 C.ar    1  UNL1       -0.0034
     26 C         140.6634  140.4637  169.5731 C.2     1  UNL1        0.0534
     27 O         141.5745  139.3272  169.9314 O.co2   1  UNL1       -0.5489
     28 O         139.5258  140.8275  170.4805 O.co2   1  UNL1       -0.5489
     29 C         141.3374  142.4213  169.1110 C.3     1  UNL1        0.0086
     30 C         140.3649  143.5150  169.4396 C.3     1  UNL1        0.0007
     31 C         142.7574  142.5125  169.5858 C.3     1  UNL1        0.0007
@<TRIPOS>UNITY_ATOM_ATTR
27 1
charge -1
@<TRIPOS>BOND
     1    15    16    1
     2    16     9    1
     3     9    10   ar
     4    10    11   ar
     5    11    12   ar
     6    12    13   ar
     7    13    14   ar
     8    14     3    1
     9     3     4    1
    10     4     5    1
    11     5     6    1
    12     6     2    1
    13     2     1    1
    14     1    17    1
    15    17    18    1
    16    18    26    1
    17    26    27   ar
    18    26    28   ar
    19    18    19    1
    20    19    20   ar
    21    20    21   ar
    22    21    22   ar
    23    22    23    1
    24    22    24   ar
    25    24    25   ar
    26    18    29    1
    27    29    30    1
    28    29    31    1
    29     6     7    1
    30     7     8    1
    31    14     9   ar
    32     8     3    1
    33    25    19   ar
@<TRIPOS>MOLECULE
*****
 31 33 0 0 0
SMALL
GASTEIGER

@<TRIPOS>ATOM
      1 C         138.9516  139.7583  167.3736 C.3     1  UNL1        0.0180
      2 C         138.5801  139.2725  166.0039 C.3     1  UNL1        0.0722
      3 N         139.3431  141.8722  162.4109 N.pl3   1  UNL1       -0.3023
      4 C         138.1072  142.0769  163.2359 C.3     1  UNL1        0.1082
      5 C         137.8528  141.2104  164.4335 C.3     1  UNL1        0.0938
      6 N         138.8345  140.1391  164.8063 N.3     1  UNL1       -0.2698
      7 C         140.0704  139.9344  163.9813 C.3     1  UNL1        0.0938
      8 C         140.3247  140.8010  162.7836 C.3     1  UNL1        0.1082
      9 C         139.0113  142.3702  159.8827 C.ar    1  UNL1        0.1519
     10 C         139.2656  143.2368  158.6851 C.ar    1  UNL1        0.0382
     11 C         140.1061  144.4721  158.8181 C.ar    1  UNL1        0.0032
     12 C         140.6922  144.8408  160.1486 C.ar    1  UNL1        0.0015
     13 C         140.4379  143.9742  161.3462 C.ar    1  UNL1        0.0176
     14 C         139.5974  142.7389  161.2132 C.ar    1  UNL1        0.0824
     15 C         138.8180  139.8169  159.4429 C.3     1  UNL1        0.2525
     16 O         138.1709  141.1349  159.7497 O.3     1  UNL1       -0.4702
     17 C         140.3859  140.0484  167.7030 C.3     1  UNL1        0.0107
     18 C         140.7340  141.2246  168.5664 C.3     1  UNL1        0.0508
     19 C         141.3655  141.9033  167.3872 C.ar    1  UNL1       -0.0179
     20 C         140.5190  142.6970  166.4366 C.ar    1  UNL1       -0.0034
     21 C         141.1505  143.3757  165.2574 C.ar    1  UNL1        0.0064
     22 C         142.6285  143.2607  165.0287 C.ar    1  UNL1        0.0345
     23 BR        143.2599  143.9394  163.8495 Br      1  UNL1       -0.0490
     24 C         143.4749  142.4670  165.9792 C.ar    1  UNL1        0.0064
     25 C         142.8435  141.7883  167.1584 C.ar    1  UNL1       -0.0034
     26 C         140.1025  140.5459  169.7456 C.2     1  UNL1        0.0534
     27 O         138.8449  141.1010  170.3457 O.co2   1  UNL1       -0.5489
     28 O         140.7287  139.3120  170.3248 O.co2   1  UNL1       -0.5489
     29 C         141.0821  142.4008  169.4298 C.3     1  UNL1        0.0086
     30 C         142.2060  142.2992  170.4180 C.3     1  UNL1        0.0007
     31 C         140.3064  143.6785  169.3049 C.3     1  UNL1        0.0007
@<TRIPOS>UNITY_ATOM_ATTR
27 1
charge -1
@<TRIPOS>BOND
     1    15    16    1
     2    16     9    1
     3     9    10   ar
     4    10    11   ar
     5    11    12   ar
     6    12    13   ar
     7    13    14   ar
     8    14     3    1
     9     3     4    1
    10     4     5    1
    11     5     6    1
    12     6     2    1
    13     2     1    1
    14     1    17    1
    15    17    18    1
    16    18    26    1
    17    26    27   ar
    18    26    28   ar
    19    18    19    1
    20    19    20   ar
    21    20    21   ar
    22    21    22   ar
    23    22    23    1
    24    22    24   ar
    25    24    25   ar
    26    18    29    1
    27    29    30    1
    28    29    31    1
    29     6     7    1
    30     7     8    1
    31    14     9   ar
    32     8     3    1
    33    25    19   ar
@<TRIPOS>MOLECULE
*****
 31 33 0 0 0
SMALL
GASTEIGER

@<TRIPOS>ATOM
      1 C         139.0662  139.5555  167.4237 C.3     1  UNL1        0.0180
      2 C         138.2612  139.5372  166.1582 C.3     1  UNL1        0.0722
      3 N         140.2807  138.7306  162.2185 N.pl3   1  UNL1       -0.3023
      4 C         139.5840  137.6189  162.9456 C.3     1  UNL1        0.1082
      5 C         138.9109  137.8878  164.2588 C.3     1  UNL1        0.0938
      6 N         138.9344  139.2684  164.8450 N.3     1  UNL1       -0.2698
      7 C         139.6311  140.3801  164.1178 C.3     1  UNL1        0.0938
      8 C         140.3042  140.1111  162.8045 C.3     1  UNL1        0.1082
      9 C         140.2173  138.7043  159.6213 C.ar    1  UNL1        0.1519
     10 C         140.8904  138.4354  158.3081 C.ar    1  UNL1        0.0382
     11 C         142.3002  137.9239  158.2789 C.ar    1  UNL1        0.0032
     12 C         143.0368  137.6813  159.5628 C.ar    1  UNL1        0.0015
     13 C         142.3637  137.9502  160.8760 C.ar    1  UNL1        0.0176
     14 C         140.9539  138.4617  160.9052 C.ar    1  UNL1        0.0824
     15 C         138.4947  140.5834  159.1197 C.3     1  UNL1        0.2525
     16 O         138.8075  139.2158  159.6505 O.3     1  UNL1       -0.4702
     17 C         139.9642  140.7186  167.7247 C.3     1  UNL1        0.0107
     18 C         141.1774  140.5264  168.5857 C.3     1  UNL1        0.0508
     19 C         142.0241  140.3692  167.3576 C.ar    1  UNL1       -0.0179
     20 C         142.5940  139.0269  167.0063 C.ar    1  UNL1       -0.0034
     21 C         143.4408  138.8697  165.7782 C.ar    1  UNL1        0.0064
     22 C         143.7177  140.0548  164.9014 C.ar    1  UNL1        0.0345
     23 BR        144.5645  139.8976  163.6733 Br      1  UNL1       -0.0490
     24 C         143.1478  141.3970  165.2527 C.ar    1  UNL1        0.0064
     25 C         142.3010  141.5542  166.4808 C.ar    1  UNL1       -0.0034
     26 C         140.3306  140.6836  169.8138 C.2     1  UNL1        0.0534
     27 O         139.9932  139.4853  170.6506 O.co2   1  UNL1       -0.5489
     28 O         139.8212  142.0391  170.2052 O.co2   1  UNL1       -0.5489
     29 C         142.3905  140.3342  169.4468 C.3     1  UNL1        0.0086
     30 C         142.7138  138.9758  169.9946 C.3     1  UNL1        0.0007
     31 C         143.2803  141.5005  169.7600 C.3     1  UNL1        0.0007
@<TRIPOS>UNITY_ATOM_ATTR
27 1
charge -1
@<TRIPOS>BOND
     1    15    16    1
     2    16     9    1
     3     9    10   ar
     4    10    11   ar
     5    11    12   ar
     6    12    13   ar
     7    13    14   ar
     8    14     3    1
     9     3     4    1
    10     4     5    1
    11     5     6    1
    12     6     2    1
    13     2     1    1
    14     1    17    1
    15    17    18    1
    16    18    26    1
    17    26    27   ar
    18    26    28   ar
    19    18    19    1
    20    19    20   ar
    21    20    21   ar
    22    21    22   ar
    23    22    23    1
    24    22    24   ar
    25    24    25   ar
    26    18    29    1
    27    29    30    1
    28    29    31    1
    29     6     7    1
    30     7     8    1
    31    14     9   ar
    32     8     3    1
    33    25    19   ar
@<TRIPOS>MOLECULE
*****
 31 33 0 0 0
SMALL
GASTEIGER

@<TRIPOS>ATOM
      1 C         142.8780  139.1189  167.5205 C.3     1  UNL1        0.0180
      2 C         143.5802  138.4808  166.3588 C.3     1  UNL1        0.0722
      3 N         143.4742  140.4443  162.3111 N.pl3   1  UNL1       -0.3023
      4 C         144.7636  140.3671  163.0737 C.3     1  UNL1        0.1082
      5 C         144.7989  139.7126  164.4229 C.3     1  UNL1        0.0938
      6 N         143.5449  139.1353  165.0096 N.3     1  UNL1       -0.2698
      7 C         142.2555  139.2125  164.2470 C.3     1  UNL1        0.0938
      8 C         142.2202  139.8670  162.8977 C.3     1  UNL1        0.1082
      9 C         143.6950  140.2864  159.7272 C.ar    1  UNL1        0.1519
     10 C         143.6597  140.9409  158.3781 C.ar    1  UNL1        0.0382
     11 C         143.3682  142.4078  158.2635 C.ar    1  UNL1        0.0032
     12 C         143.1120  143.2203  159.4981 C.ar    1  UNL1        0.0015
     13 C         143.1473  142.5657  160.8473 C.ar    1  UNL1        0.0176
     14 C         143.4389  141.0988  160.9618 C.ar    1  UNL1        0.0824
     15 C         142.8622  137.8270  159.8150 C.3     1  UNL1        0.2525
     16 O         143.9866  138.8195  159.8418 O.3     1  UNL1       -0.4702
     17 C         142.6082  140.5944  167.5154 C.3     1  UNL1        0.0107
     18 C         141.5133  141.1596  168.3708 C.3     1  UNL1        0.0508
     19 C         140.5758  141.1146  167.2007 C.ar    1  UNL1       -0.0179
     20 C         140.5631  142.2375  166.2063 C.ar    1  UNL1       -0.0034
     21 C         139.6256  142.1925  165.0362 C.ar    1  UNL1        0.0064
     22 C         138.7010  141.0245  164.8605 C.ar    1  UNL1        0.0345
     23 BR        137.7635  140.9795  163.6903 Br      1  UNL1       -0.0490
     24 C         138.7137  139.9017  165.8549 C.ar    1  UNL1        0.0064
     25 C         139.6512  139.9467  167.0250 C.ar    1  UNL1       -0.0034
     26 C         142.4507  141.2047  169.5409 C.2     1  UNL1        0.0534
     27 O         143.6380  142.1210  169.5160 O.co2   1  UNL1       -0.5489
     28 O         142.2009  140.3333  170.7361 O.co2   1  UNL1       -0.5489
     29 C         140.4184  141.7249  169.2262 C.3     1  UNL1        0.0086
     30 C         139.3524  140.8224  169.7733 C.3     1  UNL1        0.0007
     31 C         140.3895  143.1926  169.5346 C.3     1  UNL1        0.0007
@<TRIPOS>UNITY_ATOM_ATTR
27 1
charge -1
@<TRIPOS>BOND
     1    15    16    1
     2    16     9    1
     3     9    10   ar
     4    10    11   ar
     5    11    12   ar
     6    12    13   ar
     7    13    14   ar
     8    14     3    1
     9     3     4    1
    10     4     5    1
    11     5     6    1
    12     6     2    1
    13     2     1    1
    14     1    17    1
    15    17    18    1
    16    18    26    1
    17    26    27   ar
    18    26    28   ar
    19    18    19    1
    20    19    20   ar
    21    20    21   ar
    22    21    22   ar
    23    22    23    1
    24    22    24   ar
    25    24    25   ar
    26    18    29    1
    27    29    30    1
    28    29    31    1
    29     6     7    1
    30     7     8    1
    31    14     9   ar
    32     8     3    1
    33    25    19   ar
@<TRIPOS>MOLECULE
*****
 31 33 0 0 0
SMALL
GASTEIGER

@<TRIPOS>ATOM
      1 C         142.9033  139.2262  167.5294 C.3     1  UNL1        0.0180
      2 C         143.3603  138.4462  166.3325 C.3     1  UNL1        0.0722
      3 N         143.4412  140.3919  162.2757 N.pl3   1  UNL1       -0.3023
      4 C         142.1487  139.8738  162.8334 C.3     1  UNL1        0.1082
      5 C         142.1217  139.2253  164.1856 C.3     1  UNL1        0.0938
      6 N         143.3873  139.0947  164.9802 N.3     1  UNL1       -0.2698
      7 C         144.6798  139.6128  164.4225 C.3     1  UNL1        0.0938
      8 C         144.7067  140.2614  163.0702 C.3     1  UNL1        0.1082
      9 C         143.2689  142.5218  160.7979 C.ar    1  UNL1        0.1519
     10 C         143.2959  143.1703  159.4457 C.ar    1  UNL1        0.0382
     11 C         143.5220  142.3375  158.2188 C.ar    1  UNL1        0.0032
     12 C         143.7213  140.8561  158.3442 C.ar    1  UNL1        0.0015
     13 C         143.6943  140.2076  159.6965 C.ar    1  UNL1        0.0176
     14 C         143.4681  141.0405  160.9234 C.ar    1  UNL1        0.0824
     15 C         144.2017  144.0270  162.6991 C.3     1  UNL1        0.2525
     16 O         143.0427  143.3547  162.0248 O.3     1  UNL1       -0.4702
     17 C         142.5695  140.6822  167.3930 C.3     1  UNL1        0.0107
     18 C         141.5024  141.2908  168.2537 C.3     1  UNL1        0.0508
     19 C         140.5448  141.2433  167.1001 C.ar    1  UNL1       -0.0179
     20 C         140.4922  142.3790  166.1217 C.ar    1  UNL1       -0.0034
     21 C         139.5346  142.3314  164.9681 C.ar    1  UNL1        0.0064
     22 C         138.6296  141.1481  164.7929 C.ar    1  UNL1        0.0345
     23 BR        137.6721  141.1005  163.6394 Br      1  UNL1       -0.0490
     24 C         138.6822  140.0124  165.7714 C.ar    1  UNL1        0.0064
     25 C         139.6398  140.0600  166.9249 C.ar    1  UNL1       -0.0034
     26 C         142.4600  141.3384  169.4073 C.2     1  UNL1        0.0534
     27 O         143.6481  142.2527  169.3586 O.co2   1  UNL1       -0.5489
     28 O         142.2294  140.4717  170.6097 O.co2   1  UNL1       -0.5489
     29 C         140.4353  141.8995  169.1144 C.3     1  UNL1        0.0086
     30 C         139.3910  141.0262  169.7444 C.3     1  UNL1        0.0007
     31 C         140.4125  143.3815  169.3452 C.3     1  UNL1        0.0007
@<TRIPOS>UNITY_ATOM_ATTR
27 1
charge -1
@<TRIPOS>BOND
     1    15    16    1
     2    16     9    1
     3     9    10   ar
     4    10    11   ar
     5    11    12   ar
     6    12    13   ar
     7    13    14   ar
     8    14     3    1
     9     3     4    1
    10     4     5    1
    11     5     6    1
    12     6     2    1
    13     2     1    1
    14     1    17    1
    15    17    18    1
    16    18    26    1
    17    26    27   ar
    18    26    28   ar
    19    18    19    1
    20    19    20   ar
    21    20    21   ar
    22    21    22   ar
    23    22    23    1
    24    22    24   ar
    25    24    25   ar
    26    18    29    1
    27    29    30    1
    28    29    31    1
    29     6     7    1
    30     7     8    1
    31    14     9   ar
    32     8     3    1
    33    25    19   ar
@<TRIPOS>MOLECULE
*****
 31 33 0 0 0
SMALL
GASTEIGER

@<TRIPOS>ATOM
      1 C         138.9155  139.6510  167.7286 C.3     1  UNL1        0.0180
      2 C         138.1828  139.2440  166.4846 C.3     1  UNL1        0.0722
      3 N         140.4130  138.8089  162.6005 N.pl3   1  UNL1       -0.3023
      4 C         140.2053  137.6146  163.4839 C.3     1  UNL1        0.1082
      5 C         139.4619  137.7596  164.7786 C.3     1  UNL1        0.0938
      6 N         138.9262  139.0990  165.1899 N.3     1  UNL1       -0.2698
      7 C         139.1339  140.2933  164.3065 C.3     1  UNL1        0.0938
      8 C         139.8773  140.1482  163.0117 C.3     1  UNL1        0.1082
      9 C         140.4049  138.6407  160.0078 C.ar    1  UNL1        0.1519
     10 C         141.1483  138.4957  158.7131 C.ar    1  UNL1        0.0382
     11 C         142.6433  138.3737  158.7164 C.ar    1  UNL1        0.0032
     12 C         143.3949  138.3968  160.0142 C.ar    1  UNL1        0.0015
     13 C         142.6515  138.5418  161.3089 C.ar    1  UNL1        0.0176
     14 C         141.1565  138.6638  161.3057 C.ar    1  UNL1        0.0824
     15 C         138.2638  140.0574  159.6091 C.3     1  UNL1        0.2525
     16 O         138.9098  138.7627  160.0046 O.3     1  UNL1       -0.4702
     17 C         140.3619  140.0413  167.6535 C.3     1  UNL1        0.0107
     18 C         140.8562  141.2377  168.4111 C.3     1  UNL1        0.0508
     19 C         141.0726  141.9670  167.1183 C.ar    1  UNL1       -0.0179
     20 C         142.3151  141.7182  166.3157 C.ar    1  UNL1       -0.0034
     21 C         142.5314  142.4475  165.0229 C.ar    1  UNL1        0.0064
     22 C         141.5052  143.4255  164.5327 C.ar    1  UNL1        0.0345
     23 BR        141.7215  144.1548  163.2398 Br      1  UNL1       -0.0490
     24 C         140.2627  143.6743  165.3353 C.ar    1  UNL1        0.0064
     25 C         140.0464  142.9450  166.6281 C.ar    1  UNL1       -0.0034
     26 C         140.6399  140.5085  169.7039 C.2     1  UNL1        0.0534
     27 O         139.5469  140.9414  170.6355 O.co2   1  UNL1       -0.5489
     28 O         141.5166  139.3462  170.0652 O.co2   1  UNL1       -0.5489
     29 C         141.3506  142.4342  169.1688 C.3     1  UNL1        0.0086
     30 C         142.7828  142.5038  169.6092 C.3     1  UNL1        0.0007
     31 C         140.4128  143.5611  169.4860 C.3     1  UNL1        0.0007
@<TRIPOS>UNITY_ATOM_ATTR
27 1
charge -1
@<TRIPOS>BOND
     1    15    16    1
     2    16     9    1
     3     9    10   ar
     4    10    11   ar
     5    11    12   ar
     6    12    13   ar
     7    13    14   ar
     8    14     3    1
     9     3     4    1
    10     4     5    1
    11     5     6    1
    12     6     2    1
    13     2     1    1
    14     1    17    1
    15    17    18    1
    16    18    26    1
    17    26    27   ar
    18    26    28   ar
    19    18    19    1
    20    19    20   ar
    21    20    21   ar
    22    21    22   ar
    23    22    23    1
    24    22    24   ar
    25    24    25   ar
    26    18    29    1
    27    29    30    1
    28    29    31    1
    29     6     7    1
    30     7     8    1
    31    14     9   ar
    32     8     3    1
    33    25    19   ar
@<TRIPOS>MOLECULE
*****
 31 33 0 0 0
SMALL
GASTEIGER

@<TRIPOS>ATOM
      1 C         142.9279  139.0865  167.4122 C.3     1  UNL1        0.0180
      2 C         143.2793  138.4745  166.0886 C.3     1  UNL1        0.0722
      3 N         140.7232  139.3002  162.4782 N.pl3   1  UNL1       -0.3023
      4 C         141.6562  140.3555  162.9939 C.3     1  UNL1        0.1082
      5 C         142.5082  140.0803  164.1973 C.3     1  UNL1        0.0938
      6 N         142.4273  138.7497  164.8851 N.3     1  UNL1       -0.2698
      7 C         141.4943  137.6944  164.3695 C.3     1  UNL1        0.0938
      8 C         140.6423  137.9697  163.1660 C.3     1  UNL1        0.1082
      9 C         140.5075  139.7345  159.9258 C.ar    1  UNL1        0.1519
     10 C         139.6555  140.0098  158.7224 C.ar    1  UNL1        0.0382
     11 C         138.1671  140.1259  158.8680 C.ar    1  UNL1        0.0032
     12 C         137.5307  139.9669  160.2169 C.ar    1  UNL1        0.0015
     13 C         138.3828  139.6916  161.4203 C.ar    1  UNL1        0.0176
     14 C         139.8712  139.5755  161.2747 C.ar    1  UNL1        0.0824
     15 C         142.6265  138.2733  159.5726 C.3     1  UNL1        0.2525
     16 O         141.9959  139.6184  159.7802 O.3     1  UNL1       -0.4702
     17 C         142.4334  140.5011  167.4768 C.3     1  UNL1        0.0107
     18 C         141.3241  140.8656  168.4184 C.3     1  UNL1        0.0508
     19 C         140.4743  141.2841  167.2554 C.ar    1  UNL1       -0.0179
     20 C         139.6037  140.2782  166.5624 C.ar    1  UNL1       -0.0034
     21 C         138.7538  140.6967  165.3994 C.ar    1  UNL1        0.0064
     22 C         138.7746  142.1209  164.9293 C.ar    1  UNL1        0.0345
     23 BR        137.9248  142.5394  163.7662 Br      1  UNL1       -0.0490
     24 C         139.6452  143.1268  165.6223 C.ar    1  UNL1        0.0064
     25 C         140.4951  142.7083  166.7853 C.ar    1  UNL1       -0.0034
     26 C         142.1740  140.4472  169.5815 C.2     1  UNL1        0.0534
     27 O         141.8327  139.2061  170.3516 O.co2   1  UNL1       -0.5489
     28 O         143.3651  141.2699  169.9744 O.co2   1  UNL1       -0.5489
     29 C         140.2149  141.2302  169.3601 C.3     1  UNL1        0.0086
     30 C         140.2495  142.5412  170.0881 C.3     1  UNL1        0.0007
     31 C         139.0710  140.2836  169.5738 C.3     1  UNL1        0.0007
@<TRIPOS>UNITY_ATOM_ATTR
27 1
charge -1
@<TRIPOS>BOND
     1    15    16    1
     2    16     9    1
     3     9    10   ar
     4    10    11   ar
     5    11    12   ar
     6    12    13   ar
     7    13    14   ar
     8    14     3    1
     9     3     4    1
    10     4     5    1
    11     5     6    1
    12     6     2    1
    13     2     1    1
    14     1    17    1
    15    17    18    1
    16    18    26    1
    17    26    27   ar
    18    26    28   ar
    19    18    19    1
    20    19    20   ar
    21    20    21   ar
    22    21    22   ar
    23    22    23    1
    24    22    24   ar
    25    24    25   ar
    26    18    29    1
    27    29    30    1
    28    29    31    1
    29     6     7    1
    30     7     8    1
    31    14     9   ar
    32     8     3    1
    33    25    19   ar
@<TRIPOS>MOLECULE
*****
 31 33 0 0 0
SMALL
GASTEIGER

@<TRIPOS>ATOM
      1 C         139.3068  139.7709  166.8950 C.3     1  UNL1        0.0180
      2 C         138.5581  140.0275  165.6208 C.3     1  UNL1        0.0722
      3 N         140.7716  141.3810  161.9440 N.pl3   1  UNL1       -0.3023
      4 C         139.6953  142.2447  162.5320 C.3     1  UNL1        0.1082
      5 C         138.9575  141.7935  163.7576 C.3     1  UNL1        0.0938
      6 N         139.2960  140.4786  164.3953 N.3     1  UNL1       -0.2698
      7 C         140.3722  139.6149  163.8073 C.3     1  UNL1        0.0938
      8 C         141.1100  140.0661  162.5817 C.3     1  UNL1        0.1082
      9 C         142.8033  142.5787  160.8542 C.ar    1  UNL1        0.1519
     10 C         143.5411  143.0298  159.6286 C.ar    1  UNL1        0.0382
     11 C         142.9849  142.7345  158.2672 C.ar    1  UNL1        0.0032
     12 C         141.6910  141.9880  158.1314 C.ar    1  UNL1        0.0015
     13 C         140.9533  141.5368  159.3570 C.ar    1  UNL1        0.0176
     14 C         141.5094  141.8322  160.7184 C.ar    1  UNL1        0.0824
     15 C         143.5883  144.2943  162.6404 C.3     1  UNL1        0.2525
     16 O         143.3595  142.8740  162.2156 O.3     1  UNL1       -0.4702
     17 C         140.0213  140.8952  167.5845 C.3     1  UNL1        0.0107
     18 C         141.1645  140.6017  168.5102 C.3     1  UNL1        0.0508
     19 C         142.0763  140.4339  167.3310 C.ar    1  UNL1       -0.0179
     20 C         142.4758  141.6280  166.5160 C.ar    1  UNL1       -0.0034
     21 C         143.3876  141.4602  165.3368 C.ar    1  UNL1        0.0064
     22 C         143.8998  140.0983  164.9726 C.ar    1  UNL1        0.0345
     23 BR        144.8116  139.9305  163.7934 Br      1  UNL1       -0.0490
     24 C         143.5002  138.9041  165.7876 C.ar    1  UNL1        0.0064
     25 C         142.5885  139.0719  166.9668 C.ar    1  UNL1       -0.0034
     26 C         140.2527  140.7695  169.6894 C.2     1  UNL1        0.0534
     27 O         139.9979  142.1364  170.2519 O.co2   1  UNL1       -0.5489
     28 O         139.5958  139.5703  170.3061 O.co2   1  UNL1       -0.5489
     29 C         142.3077  140.3081  169.4359 C.3     1  UNL1        0.0086
     30 C         142.4975  138.9222  169.9773 C.3     1  UNL1        0.0007
     31 C         143.2611  141.4006  169.8202 C.3     1  UNL1        0.0007
@<TRIPOS>UNITY_ATOM_ATTR
27 1
charge -1
@<TRIPOS>BOND
     1    15    16    1
     2    16     9    1
     3     9    10   ar
     4    10    11   ar
     5    11    12   ar
     6    12    13   ar
     7    13    14   ar
     8    14     3    1
     9     3     4    1
    10     4     5    1
    11     5     6    1
    12     6     2    1
    13     2     1    1
    14     1    17    1
    15    17    18    1
    16    18    26    1
    17    26    27   ar
    18    26    28   ar
    19    18    19    1
    20    19    20   ar
    21    20    21   ar
    22    21    22   ar
    23    22    23    1
    24    22    24   ar
    25    24    25   ar
    26    18    29    1
    27    29    30    1
    28    29    31    1
    29     6     7    1
    30     7     8    1
    31    14     9   ar
    32     8     3    1
    33    25    19   ar
