@<TRIPOS>MOLECULE
*****
 35 39 0 0 0
SMALL
GASTEIGER

@<TRIPOS>ATOM
      1 O         142.0571  141.0740  163.3361 O.2     1  UNL1       -0.2522
      2 C         141.2678  140.0079  164.0365 C.2     1  UNL1        0.3082
      3 N         140.9723  138.7132  163.3391 N.am    1  UNL1       -0.2656
      4 N         140.7740  140.2367  165.4344 N.am    1  UNL1       -0.2576
      5 C         139.9846  139.1706  166.1348 C.3     1  UNL1        0.1018
      6 C         139.4908  139.3993  167.5325 C.3     1  UNL1        0.0671
      7 C         139.7863  140.6941  168.2300 C.ar    1  UNL1        0.0586
      8 N         139.2925  140.9228  169.6277 N.ar    1  UNL1       -0.2483
      9 C         139.5880  142.2175  170.3251 C.ar    1  UNL1        0.0984
     10 C         140.3773  143.2835  169.6247 C.ar    1  UNL1        0.0204
     11 C         140.8712  143.0548  168.2269 C.ar    1  UNL1        0.0004
     12 C         140.5756  141.7601  167.5296 C.ar    1  UNL1        0.0136
     13 C         141.0695  141.5314  166.1317 C.3     1  UNL1        0.1231
     14 H         140.4542  138.0136  163.7988 H       1  UNL1        0.1565
     15 C         141.8588  142.5974  165.4313 C.ar    1  UNL1        0.0001
     16 C         143.3553  142.6120  165.5338 C.ar    1  UNL1       -0.0000
     17 C         144.1446  143.6781  164.8334 C.ar    1  UNL1        0.0294
     18 C         143.4374  144.7294  164.0305 C.ar    1  UNL1        0.1401
     19 F         144.2268  145.7955  163.3301 F       1  UNL1       -0.2042
     20 C         141.9410  144.7148  163.9280 C.ar    1  UNL1        0.0294
     21 C         141.1517  143.6487  164.6284 C.ar    1  UNL1       -0.0000
     22 C         141.4661  138.4846  161.9414 C.ar    1  UNL1        0.0906
     23 C         142.8649  137.9946  161.7109 C.ar    1  UNL1        0.1199
     24 N         143.3587  137.7659  160.3130 N.ar    1  UNL1       -0.1911
     25 C         142.4537  138.0272  159.1457 C.ar    1  UNL1        0.3247
     26 N         141.0548  138.5172  159.3762 N.ar    1  UNL1       -0.1911
     27 C         140.5610  138.7458  160.7740 C.ar    1  UNL1        0.1199
     28 O         142.9475  137.7985  157.7480 O.3     1  UNL1       -0.4223
     29 C         142.5279  136.5704  156.9958 C.ar    1  UNL1        0.1488
     30 C         143.2211  135.2641  157.2464 C.ar    1  UNL1        0.0399
     31 C         142.8015  134.0360  156.4943 C.ar    1  UNL1        0.0328
     32 C         141.6888  134.1143  155.4915 C.ar    1  UNL1        0.1403
     33 F         141.2692  132.8862  154.7393 F       1  UNL1       -0.2042
     34 C         140.9955  135.4207  155.2408 C.ar    1  UNL1        0.0328
     35 C         141.4151  136.6488  155.9930 C.ar    1  UNL1        0.0399
@<TRIPOS>BOND
     1     1     2    2
     2     2     3   am
     3     3    22    1
     4    22    23   ar
     5    23    24   ar
     6    24    25   ar
     7    25    28    1
     8    28    29    1
     9    29    30   ar
    10    30    31   ar
    11    31    32   ar
    12    32    33    1
    13    32    34   ar
    14    34    35   ar
    15    25    26   ar
    16    26    27   ar
    17     2     4   am
    18     4     5    1
    19     5     6    1
    20     6     7    1
    21     7     8   ar
    22     8     9   ar
    23     9    10   ar
    24    10    11   ar
    25    11    12   ar
    26    12    13    1
    27    13    15    1
    28    15    16   ar
    29    16    17   ar
    30    17    18   ar
    31    18    19    1
    32    18    20   ar
    33    20    21   ar
    34    27    22   ar
    35    13     4    1
    36    21    15   ar
    37    35    29   ar
    38    12     7   ar
    39     3    14    1
@<TRIPOS>MOLECULE
*****
 35 39 0 0 0
SMALL
GASTEIGER

@<TRIPOS>ATOM
      1 O         141.3547  141.1758  163.2120 O.2     1  UNL1       -0.2522
      2 C         142.0252  140.1856  164.1174 C.2     1  UNL1        0.3082
      3 N         142.7626  139.0164  163.5351 N.am    1  UNL1       -0.2656
      4 N         141.9584  140.3647  165.6053 N.am    1  UNL1       -0.2576
      5 C         142.6290  139.3745  166.5107 C.3     1  UNL1        0.1018
      6 C         142.5622  139.5535  167.9984 C.3     1  UNL1        0.0671
      7 C         141.8248  140.7228  168.5808 C.ar    1  UNL1        0.0586
      8 N         141.7580  140.9018  170.0686 N.ar    1  UNL1       -0.2483
      9 C         141.0207  142.0710  170.6509 C.ar    1  UNL1        0.0984
     10 C         140.3501  143.0612  169.7455 C.ar    1  UNL1        0.0204
     11 C         140.4169  142.8822  168.2577 C.ar    1  UNL1        0.0004
     12 C         141.1542  141.7130  167.6754 C.ar    1  UNL1        0.0136
     13 C         141.2211  141.5339  166.1876 C.3     1  UNL1        0.1231
     14 H         143.2027  138.3665  164.1294 H       1  UNL1        0.1565
     15 C         140.5505  142.5241  165.2822 C.ar    1  UNL1        0.0001
     16 C         141.3225  143.6935  164.7468 C.ar    1  UNL1       -0.0000
     17 C         140.6519  144.6837  163.8413 C.ar    1  UNL1        0.0294
     18 C         139.2093  144.5045  163.4713 C.ar    1  UNL1        0.1401
     19 F         138.5387  145.4948  162.5659 F       1  UNL1       -0.2042
     20 C         138.4374  143.3352  164.0067 C.ar    1  UNL1        0.0294
     21 C         139.1079  142.3450  164.9121 C.ar    1  UNL1       -0.0000
     22 C         142.8294  138.8374  162.0474 C.ar    1  UNL1        0.0906
     23 C         141.6924  138.1844  161.3187 C.ar    1  UNL1        0.1199
     24 N         141.7593  138.0054  159.8309 N.ar    1  UNL1       -0.1911
     25 C         142.9630  138.4794  159.0718 C.ar    1  UNL1        0.3247
     26 N         144.1000  139.1323  159.8004 N.ar    1  UNL1       -0.1911
     27 C         144.0332  139.3113  161.2882 C.ar    1  UNL1        0.1199
     28 O         143.0298  138.3004  157.5840 O.3     1  UNL1       -0.4223
     29 C         142.6349  136.9911  156.9677 C.ar    1  UNL1        0.1488
     30 C         141.5250  136.9410  155.9599 C.ar    1  UNL1        0.0399
     31 C         141.1301  135.6318  155.3436 C.ar    1  UNL1        0.0328
     32 C         141.8452  134.3726  155.7349 C.ar    1  UNL1        0.1403
     33 F         141.4503  133.0633  155.1185 F       1  UNL1       -0.2042
     34 C         142.9551  134.4226  156.7427 C.ar    1  UNL1        0.0328
     35 C         143.3500  135.7319  157.3591 C.ar    1  UNL1        0.0399
@<TRIPOS>BOND
     1     1     2    2
     2     2     3   am
     3     3    22    1
     4    22    23   ar
     5    23    24   ar
     6    24    25   ar
     7    25    28    1
     8    28    29    1
     9    29    30   ar
    10    30    31   ar
    11    31    32   ar
    12    32    33    1
    13    32    34   ar
    14    34    35   ar
    15    25    26   ar
    16    26    27   ar
    17     2     4   am
    18     4     5    1
    19     5     6    1
    20     6     7    1
    21     7     8   ar
    22     8     9   ar
    23     9    10   ar
    24    10    11   ar
    25    11    12   ar
    26    12    13    1
    27    13    15    1
    28    15    16   ar
    29    16    17   ar
    30    17    18   ar
    31    18    19    1
    32    18    20   ar
    33    20    21   ar
    34    27    22   ar
    35    13     4    1
    36    21    15   ar
    37    35    29   ar
    38    12     7   ar
    39     3    14    1
@<TRIPOS>MOLECULE
*****
 35 39 0 0 0
SMALL
GASTEIGER

@<TRIPOS>ATOM
      1 O         141.3159  140.9397  163.6160 O.2     1  UNL1       -0.2522
      2 C         142.0370  140.0165  164.5528 C.2     1  UNL1        0.3082
      3 N         142.8310  138.8660  164.0088 N.am    1  UNL1       -0.2656
      4 N         141.9642  140.2439  166.0338 N.am    1  UNL1       -0.2576
      5 C         142.6853  139.3207  166.9706 C.3     1  UNL1        0.1018
      6 C         142.6125  139.5479  168.4515 C.3     1  UNL1        0.0671
      7 C         141.8185  140.6985  168.9956 C.ar    1  UNL1        0.0586
      8 N         141.7457  140.9258  170.4764 N.ar    1  UNL1       -0.2483
      9 C         140.9517  142.0763  171.0204 C.ar    1  UNL1        0.0984
     10 C         140.2306  142.9995  170.0836 C.ar    1  UNL1        0.0204
     11 C         140.3035  142.7722  168.6027 C.ar    1  UNL1        0.0004
     12 C         141.0974  141.6217  168.0587 C.ar    1  UNL1        0.0136
     13 C         141.1702  141.3944  166.5778 C.3     1  UNL1        0.1231
     14 H         143.3042  138.2601  164.6237 H       1  UNL1        0.1565
     15 C         140.4491  142.3176  165.6409 C.ar    1  UNL1        0.0001
     16 C         141.1494  143.5246  165.0906 C.ar    1  UNL1       -0.0000
     17 C         140.4283  144.4478  164.1537 C.ar    1  UNL1        0.0294
     18 C         139.0069  144.1640  163.7672 C.ar    1  UNL1        0.1401
     19 F         138.2858  145.0872  162.8304 F       1  UNL1       -0.2042
     20 C         138.3068  142.9570  164.3176 C.ar    1  UNL1        0.0294
     21 C         139.0279  142.0338  165.2544 C.ar    1  UNL1       -0.0000
     22 C         142.9038  138.6388  162.5280 C.ar    1  UNL1        0.0906
     23 C         144.0447  139.2071  161.7371 C.ar    1  UNL1        0.1199
     24 N         144.1175  138.9797  160.2562 N.ar    1  UNL1       -0.1911
     25 C         143.0494  138.1842  159.5662 C.ar    1  UNL1        0.3247
     26 N         141.9085  137.6159  160.3570 N.ar    1  UNL1       -0.1911
     27 C         141.8357  137.8431  161.8378 C.ar    1  UNL1        0.1199
     28 O         143.1222  137.9569  158.0853 O.3     1  UNL1       -0.4223
     29 C         141.8638  137.7520  157.2952 C.ar    1  UNL1        0.1488
     30 C         141.7039  136.5277  156.4434 C.ar    1  UNL1        0.0399
     31 C         140.4455  136.3228  155.6533 C.ar    1  UNL1        0.0328
     32 C         139.3469  137.3422  155.7149 C.ar    1  UNL1        0.1403
     33 F         138.0884  137.1373  154.9248 F       1  UNL1       -0.2042
     34 C         139.5066  138.5665  156.5667 C.ar    1  UNL1        0.0328
     35 C         140.7651  138.7714  157.3568 C.ar    1  UNL1        0.0399
@<TRIPOS>BOND
     1     1     2    2
     2     2     3   am
     3     3    22    1
     4    22    23   ar
     5    23    24   ar
     6    24    25   ar
     7    25    28    1
     8    28    29    1
     9    29    30   ar
    10    30    31   ar
    11    31    32   ar
    12    32    33    1
    13    32    34   ar
    14    34    35   ar
    15    25    26   ar
    16    26    27   ar
    17     2     4   am
    18     4     5    1
    19     5     6    1
    20     6     7    1
    21     7     8   ar
    22     8     9   ar
    23     9    10   ar
    24    10    11   ar
    25    11    12   ar
    26    12    13    1
    27    13    15    1
    28    15    16   ar
    29    16    17   ar
    30    17    18   ar
    31    18    19    1
    32    18    20   ar
    33    20    21   ar
    34    27    22   ar
    35    13     4    1
    36    21    15   ar
    37    35    29   ar
    38    12     7   ar
    39     3    14    1
@<TRIPOS>MOLECULE
*****
 35 39 0 0 0
SMALL
GASTEIGER

@<TRIPOS>ATOM
      1 O         141.4554  141.1569  162.9004 O.2     1  UNL1       -0.2522
      2 C         140.6149  140.0894  163.5360 C.2     1  UNL1        0.3082
      3 N         140.1310  138.9293  162.7175 N.am    1  UNL1       -0.2656
      4 N         140.2583  140.1820  164.9900 N.am    1  UNL1       -0.2576
      5 C         139.4177  139.1145  165.6256 C.3     1  UNL1        0.1018
      6 C         139.0611  139.2071  167.0796 C.3     1  UNL1        0.0671
      7 C         139.5450  140.3672  167.8981 C.ar    1  UNL1        0.0586
      8 N         139.1883  140.4598  169.3522 N.ar    1  UNL1       -0.2483
      9 C         139.6722  141.6199  170.1707 C.ar    1  UNL1        0.0984
     10 C         140.5128  142.6874  169.5351 C.ar    1  UNL1        0.0204
     11 C         140.8694  142.5948  168.0811 C.ar    1  UNL1        0.0004
     12 C         140.3855  141.4347  167.2626 C.ar    1  UNL1        0.0136
     13 C         140.7422  141.3421  165.8085 C.3     1  UNL1        0.1231
     14 H         139.5793  138.2287  163.1346 H       1  UNL1        0.1565
     15 C         141.5827  142.4096  165.1730 C.ar    1  UNL1        0.0001
     16 C         140.9276  143.5905  164.5200 C.ar    1  UNL1       -0.0000
     17 C         141.7681  144.6581  163.8845 C.ar    1  UNL1        0.0294
     18 C         143.2638  144.5447  163.9020 C.ar    1  UNL1        0.1401
     19 F         144.1043  145.6122  163.2665 F       1  UNL1       -0.2042
     20 C         143.9188  143.3638  164.5550 C.ar    1  UNL1        0.0294
     21 C         143.0783  142.2963  165.1905 C.ar    1  UNL1       -0.0000
     22 C         140.4876  138.8368  161.2634 C.ar    1  UNL1        0.0906
     23 C         139.5623  139.4016  160.2268 C.ar    1  UNL1        0.1199
     24 N         139.9190  139.3090  158.7727 N.ar    1  UNL1       -0.1911
     25 C         141.2010  138.6516  158.3554 C.ar    1  UNL1        0.3247
     26 N         142.1263  138.0867  159.3920 N.ar    1  UNL1       -0.1911
     27 C         141.7697  138.1793  160.8460 C.ar    1  UNL1        0.1199
     28 O         141.5576  138.5590  156.9014 O.3     1  UNL1       -0.4223
     29 C         141.9904  137.2469  156.3173 C.ar    1  UNL1        0.1488
     30 C         140.9638  136.2677  155.8304 C.ar    1  UNL1        0.0399
     31 C         141.3965  134.9556  155.2463 C.ar    1  UNL1        0.0328
     32 C         142.8559  134.6227  155.1492 C.ar    1  UNL1        0.1403
     33 F         143.2886  133.3106  154.5652 F       1  UNL1       -0.2042
     34 C         143.8825  135.6020  155.6362 C.ar    1  UNL1        0.0328
     35 C         143.4498  136.9141  156.2202 C.ar    1  UNL1        0.0399
@<TRIPOS>BOND
     1     1     2    2
     2     2     3   am
     3     3    22    1
     4    22    23   ar
     5    23    24   ar
     6    24    25   ar
     7    25    28    1
     8    28    29    1
     9    29    30   ar
    10    30    31   ar
    11    31    32   ar
    12    32    33    1
    13    32    34   ar
    14    34    35   ar
    15    25    26   ar
    16    26    27   ar
    17     2     4   am
    18     4     5    1
    19     5     6    1
    20     6     7    1
    21     7     8   ar
    22     8     9   ar
    23     9    10   ar
    24    10    11   ar
    25    11    12   ar
    26    12    13    1
    27    13    15    1
    28    15    16   ar
    29    16    17   ar
    30    17    18   ar
    31    18    19    1
    32    18    20   ar
    33    20    21   ar
    34    27    22   ar
    35    13     4    1
    36    21    15   ar
    37    35    29   ar
    38    12     7   ar
    39     3    14    1
@<TRIPOS>MOLECULE
*****
 35 39 0 0 0
SMALL
GASTEIGER

@<TRIPOS>ATOM
      1 O         141.3359  140.5076  163.5712 O.2     1  UNL1       -0.2522
      2 C         140.1386  140.1724  164.4104 C.2     1  UNL1        0.3082
      3 N         138.8336  139.8329  163.7535 N.am    1  UNL1       -0.2656
      4 N         140.2465  140.1768  165.9065 N.am    1  UNL1       -0.2576
      5 C         139.0492  139.8416  166.7457 C.3     1  UNL1        0.1018
      6 C         139.1570  139.8459  168.2418 C.3     1  UNL1        0.0671
      7 C         140.4621  140.1855  168.8988 C.ar    1  UNL1        0.0586
      8 N         140.5699  140.1898  170.3949 N.ar    1  UNL1       -0.2483
      9 C         141.8750  140.5293  171.0517 C.ar    1  UNL1        0.0984
     10 C         143.0722  140.8645  170.2125 C.ar    1  UNL1        0.0204
     11 C         142.9644  140.8601  168.7165 C.ar    1  UNL1        0.0004
     12 C         141.6594  140.5206  168.0596 C.ar    1  UNL1        0.0136
     13 C         141.5515  140.5163  166.5634 C.3     1  UNL1        0.1231
     14 H         138.0478  139.6130  164.3043 H       1  UNL1        0.1565
     15 C         142.7488  140.8515  165.7242 C.ar    1  UNL1        0.0001
     16 C         143.6294  139.7551  165.2020 C.ar    1  UNL1       -0.0000
     17 C         144.8266  140.0902  164.3628 C.ar    1  UNL1        0.0294
     18 C         145.1433  141.5218  164.0458 C.ar    1  UNL1        0.1401
     19 F         146.3405  141.8570  163.2066 F       1  UNL1       -0.2042
     20 C         144.2627  142.6181  164.5680 C.ar    1  UNL1        0.0294
     21 C         143.0654  142.2829  165.4072 C.ar    1  UNL1       -0.0000
     22 C         138.7258  139.8286  162.2574 C.ar    1  UNL1        0.0906
     23 C         138.0858  140.9851  161.5482 C.ar    1  UNL1        0.1199
     24 N         137.9780  140.9807  160.0520 N.ar    1  UNL1       -0.1911
     25 C         138.5102  139.8199  159.2652 C.ar    1  UNL1        0.3247
     26 N         139.1501  138.6634  159.9744 N.ar    1  UNL1       -0.1911
     27 C         139.2579  138.6677  161.4704 C.ar    1  UNL1        0.1199
     28 O         138.4024  139.8156  157.7691 O.3     1  UNL1       -0.4223
     29 C         138.0456  141.0765  157.0392 C.ar    1  UNL1        0.1488
     30 C         139.0327  142.2032  156.9618 C.ar    1  UNL1        0.0399
     31 C         138.6760  143.4642  156.2319 C.ar    1  UNL1        0.0328
     32 C         137.3321  143.5984  155.5794 C.ar    1  UNL1        0.1403
     33 F         136.9753  144.8593  154.8495 F       1  UNL1       -0.2042
     34 C         136.3449  142.4716  155.6567 C.ar    1  UNL1        0.0328
     35 C         136.7016  141.2107  156.3866 C.ar    1  UNL1        0.0399
@<TRIPOS>BOND
     1     1     2    2
     2     2     3   am
     3     3    22    1
     4    22    23   ar
     5    23    24   ar
     6    24    25   ar
     7    25    28    1
     8    28    29    1
     9    29    30   ar
    10    30    31   ar
    11    31    32   ar
    12    32    33    1
    13    32    34   ar
    14    34    35   ar
    15    25    26   ar
    16    26    27   ar
    17     2     4   am
    18     4     5    1
    19     5     6    1
    20     6     7    1
    21     7     8   ar
    22     8     9   ar
    23     9    10   ar
    24    10    11   ar
    25    11    12   ar
    26    12    13    1
    27    13    15    1
    28    15    16   ar
    29    16    17   ar
    30    17    18   ar
    31    18    19    1
    32    18    20   ar
    33    20    21   ar
    34    27    22   ar
    35    13     4    1
    36    21    15   ar
    37    35    29   ar
    38    12     7   ar
    39     3    14    1
@<TRIPOS>MOLECULE
*****
 35 39 0 0 0
SMALL
GASTEIGER

@<TRIPOS>ATOM
      1 O         141.4970  141.2049  163.0846 O.2     1  UNL1       -0.2522
      2 C         140.6738  140.1558  163.7714 C.2     1  UNL1        0.3082
      3 N         140.2050  138.9522  163.0090 N.am    1  UNL1       -0.2656
      4 N         140.3194  140.3105  165.2208 N.am    1  UNL1       -0.2576
      5 C         139.4963  139.2614  165.9077 C.3     1  UNL1        0.1018
      6 C         139.1419  139.4160  167.3570 C.3     1  UNL1        0.0671
      7 C         139.6108  140.6197  168.1195 C.ar    1  UNL1        0.0586
      8 N         139.2564  140.7743  169.5688 N.ar    1  UNL1       -0.2483
      9 C         139.7252  141.9780  170.3312 C.ar    1  UNL1        0.0984
     10 C         140.5484  143.0271  169.6443 C.ar    1  UNL1        0.0204
     11 C         140.9028  142.8725  168.1950 C.ar    1  UNL1        0.0004
     12 C         140.4339  141.6688  167.4326 C.ar    1  UNL1        0.0136
     13 C         140.7883  141.5142  165.9832 C.3     1  UNL1        0.1231
     14 H         139.6647  138.2636  163.4599 H       1  UNL1        0.1565
     15 C         141.6114  142.5632  165.2963 C.ar    1  UNL1        0.0001
     16 C         140.9382  143.7167  164.6133 C.ar    1  UNL1       -0.0000
     17 C         141.7614  144.7657  163.9264 C.ar    1  UNL1        0.0294
     18 C         143.2578  144.6614  163.9226 C.ar    1  UNL1        0.1401
     19 F         144.0809  145.7105  163.2357 F       1  UNL1       -0.2042
     20 C         143.9309  143.5081  164.6056 C.ar    1  UNL1        0.0294
     21 C         143.1078  142.4590  165.2924 C.ar    1  UNL1       -0.0000
     22 C         140.5593  138.7976  161.5598 C.ar    1  UNL1        0.0906
     23 C         141.9128  138.2821  161.1694 C.ar    1  UNL1        0.1199
     24 N         142.2671  138.1276  159.7200 N.ar    1  UNL1       -0.1911
     25 C         141.2680  138.4884  158.6611 C.ar    1  UNL1        0.3247
     26 N         139.9145  139.0038  159.0514 N.ar    1  UNL1       -0.1911
     27 C         139.5601  139.1584  160.5007 C.ar    1  UNL1        0.1199
     28 O         141.6223  138.3338  157.2118 O.3     1  UNL1       -0.4223
     29 C         142.8935  138.9290  156.6829 C.ar    1  UNL1        0.1488
     30 C         143.3561  140.2683  157.1748 C.ar    1  UNL1        0.0399
     31 C         144.6273  140.8635  156.6459 C.ar    1  UNL1        0.0328
     32 C         145.4359  140.1194  155.6250 C.ar    1  UNL1        0.1403
     33 F         146.7071  140.7146  155.0961 F       1  UNL1       -0.2042
     34 C         144.9734  138.7799  155.1330 C.ar    1  UNL1        0.0328
     35 C         143.7022  138.1847  155.6619 C.ar    1  UNL1        0.0399
@<TRIPOS>BOND
     1     1     2    2
     2     2     3   am
     3     3    22    1
     4    22    23   ar
     5    23    24   ar
     6    24    25   ar
     7    25    28    1
     8    28    29    1
     9    29    30   ar
    10    30    31   ar
    11    31    32   ar
    12    32    33    1
    13    32    34   ar
    14    34    35   ar
    15    25    26   ar
    16    26    27   ar
    17     2     4   am
    18     4     5    1
    19     5     6    1
    20     6     7    1
    21     7     8   ar
    22     8     9   ar
    23     9    10   ar
    24    10    11   ar
    25    11    12   ar
    26    12    13    1
    27    13    15    1
    28    15    16   ar
    29    16    17   ar
    30    17    18   ar
    31    18    19    1
    32    18    20   ar
    33    20    21   ar
    34    27    22   ar
    35    13     4    1
    36    21    15   ar
    37    35    29   ar
    38    12     7   ar
    39     3    14    1
@<TRIPOS>MOLECULE
*****
 35 39 0 0 0
SMALL
GASTEIGER

@<TRIPOS>ATOM
      1 O         141.3073  140.9753  163.6279 O.2     1  UNL1       -0.2522
      2 C         142.0082  140.0672  164.5944 C.2     1  UNL1        0.3082
      3 N         142.7663  138.8757  164.0891 N.am    1  UNL1       -0.2656
      4 N         141.9509  140.3507  166.0663 N.am    1  UNL1       -0.2576
      5 C         142.6518  139.4426  167.0328 C.3     1  UNL1        0.1018
      6 C         142.5945  139.7261  168.5047 C.3     1  UNL1        0.0671
      7 C         141.8364  140.9177  169.0101 C.ar    1  UNL1        0.0586
      8 N         141.7792  141.2012  170.4819 N.ar    1  UNL1       -0.2483
      9 C         141.0211  142.3927  170.9872 C.ar    1  UNL1        0.0984
     10 C         140.3202  143.3008  170.0207 C.ar    1  UNL1        0.0204
     11 C         140.3774  143.0174  168.5489 C.ar    1  UNL1        0.0004
     12 C         141.1355  141.8258  168.0436 C.ar    1  UNL1        0.0136
     13 C         141.1928  141.5423  166.5717 C.3     1  UNL1        0.1231
     14 H         143.2263  138.2796  164.7235 H       1  UNL1        0.1565
     15 C         140.4919  142.4504  165.6052 C.ar    1  UNL1        0.0001
     16 C         141.2177  143.6247  165.0183 C.ar    1  UNL1       -0.0000
     17 C         140.5168  144.5328  164.0518 C.ar    1  UNL1        0.0294
     18 C         139.0902  144.2666  163.6722 C.ar    1  UNL1        0.1401
     19 F         138.3893  145.1747  162.7057 F       1  UNL1       -0.2042
     20 C         138.3646  143.0923  164.2590 C.ar    1  UNL1        0.0294
     21 C         139.0654  142.1842  165.2255 C.ar    1  UNL1       -0.0000
     22 C         142.8235  138.5922  162.6173 C.ar    1  UNL1        0.0906
     23 C         141.6637  137.9287  161.9356 C.ar    1  UNL1        0.1199
     24 N         141.7210  137.6452  160.4637 N.ar    1  UNL1       -0.1911
     25 C         142.9381  138.0253  159.6735 C.ar    1  UNL1        0.3247
     26 N         144.0978  138.6888  160.3552 N.ar    1  UNL1       -0.1911
     27 C         144.0406  138.9723  161.8270 C.ar    1  UNL1        0.1199
     28 O         142.9953  137.7418  158.2017 O.3     1  UNL1       -0.4223
     29 C         142.9946  138.8752  157.2191 C.ar    1  UNL1        0.1488
     30 C         142.3541  140.1820  157.5819 C.ar    1  UNL1        0.0399
     31 C         142.3534  141.3154  156.5993 C.ar    1  UNL1        0.0328
     32 C         142.9932  141.1418  155.2538 C.ar    1  UNL1        0.1403
     33 F         142.9926  142.2751  154.2711 F       1  UNL1       -0.2042
     34 C         143.6338  139.8348  154.8909 C.ar    1  UNL1        0.0328
     35 C         143.6345  138.7015  155.8735 C.ar    1  UNL1        0.0399
@<TRIPOS>BOND
     1     1     2    2
     2     2     3   am
     3     3    22    1
     4    22    23   ar
     5    23    24   ar
     6    24    25   ar
     7    25    28    1
     8    28    29    1
     9    29    30   ar
    10    30    31   ar
    11    31    32   ar
    12    32    33    1
    13    32    34   ar
    14    34    35   ar
    15    25    26   ar
    16    26    27   ar
    17     2     4   am
    18     4     5    1
    19     5     6    1
    20     6     7    1
    21     7     8   ar
    22     8     9   ar
    23     9    10   ar
    24    10    11   ar
    25    11    12   ar
    26    12    13    1
    27    13    15    1
    28    15    16   ar
    29    16    17   ar
    30    17    18   ar
    31    18    19    1
    32    18    20   ar
    33    20    21   ar
    34    27    22   ar
    35    13     4    1
    36    21    15   ar
    37    35    29   ar
    38    12     7   ar
    39     3    14    1
@<TRIPOS>MOLECULE
*****
 35 39 0 0 0
SMALL
GASTEIGER

@<TRIPOS>ATOM
      1 O         140.1527  141.3226  162.7108 O.2     1  UNL1       -0.2522
      2 C         139.3304  140.2150  163.3001 C.2     1  UNL1        0.3082
      3 N         138.6257  139.2437  162.4001 N.am    1  UNL1       -0.2656
      4 N         139.2128  140.0789  164.7893 N.am    1  UNL1       -0.2576
      5 C         138.3905  138.9713  165.3785 C.3     1  UNL1        0.1018
      6 C         138.2729  138.8351  166.8676 C.3     1  UNL1        0.0671
      7 C         138.9776  139.8065  167.7676 C.ar    1  UNL1        0.0586
      8 N         138.8600  139.6702  169.2568 N.ar    1  UNL1       -0.2483
      9 C         139.5647  140.6415  170.1567 C.ar    1  UNL1        0.0984
     10 C         140.3871  141.7491  169.5675 C.ar    1  UNL1        0.0204
     11 C         140.5047  141.8853  168.0783 C.ar    1  UNL1        0.0004
     12 C         139.7999  140.9140  167.1784 C.ar    1  UNL1        0.0136
     13 C         139.9175  141.0502  165.6892 C.3     1  UNL1        0.1231
     14 H         138.0859  138.5168  162.7869 H       1  UNL1        0.1565
     15 C         140.7399  142.1577  165.1000 C.ar    1  UNL1        0.0001
     16 C         142.2019  141.9483  164.8376 C.ar    1  UNL1       -0.0000
     17 C         143.0242  143.0558  164.2484 C.ar    1  UNL1        0.0294
     18 C         142.3845  144.3727  163.9215 C.ar    1  UNL1        0.1401
     19 F         143.2068  145.4802  163.3323 F       1  UNL1       -0.2042
     20 C         140.9226  144.5820  164.1839 C.ar    1  UNL1        0.0294
     21 C         140.1002  143.4745  164.7731 C.ar    1  UNL1       -0.0000
     22 C         138.7433  139.3800  160.9110 C.ar    1  UNL1        0.0906
     23 C         139.9210  138.7889  160.1945 C.ar    1  UNL1        0.1199
     24 N         140.0386  138.9251  158.7053 N.ar    1  UNL1       -0.1911
     25 C         138.9784  139.6524  157.9327 C.ar    1  UNL1        0.3247
     26 N         137.8006  140.2435  158.6492 N.ar    1  UNL1       -0.1911
     27 C         137.6830  140.1073  160.1383 C.ar    1  UNL1        0.1199
     28 O         139.0960  139.7887  156.4435 O.3     1  UNL1       -0.4223
     29 C         138.4459  140.9444  155.7424 C.ar    1  UNL1        0.1488
     30 C         139.1131  142.2878  155.7338 C.ar    1  UNL1        0.0399
     31 C         138.4630  143.4436  155.0327 C.ar    1  UNL1        0.0328
     32 C         137.1457  143.2560  154.3403 C.ar    1  UNL1        0.1403
     33 F         136.4956  144.4118  153.6392 F       1  UNL1       -0.2042
     34 C         136.4784  141.9125  154.3489 C.ar    1  UNL1        0.0328
     35 C         137.1285  140.7568  155.0500 C.ar    1  UNL1        0.0399
@<TRIPOS>BOND
     1     1     2    2
     2     2     3   am
     3     3    22    1
     4    22    23   ar
     5    23    24   ar
     6    24    25   ar
     7    25    28    1
     8    28    29    1
     9    29    30   ar
    10    30    31   ar
    11    31    32   ar
    12    32    33    1
    13    32    34   ar
    14    34    35   ar
    15    25    26   ar
    16    26    27   ar
    17     2     4   am
    18     4     5    1
    19     5     6    1
    20     6     7    1
    21     7     8   ar
    22     8     9   ar
    23     9    10   ar
    24    10    11   ar
    25    11    12   ar
    26    12    13    1
    27    13    15    1
    28    15    16   ar
    29    16    17   ar
    30    17    18   ar
    31    18    19    1
    32    18    20   ar
    33    20    21   ar
    34    27    22   ar
    35    13     4    1
    36    21    15   ar
    37    35    29   ar
    38    12     7   ar
    39     3    14    1
@<TRIPOS>MOLECULE
*****
 35 39 0 0 0
SMALL
GASTEIGER

@<TRIPOS>ATOM
      1 O         141.7788  140.6148  163.6109 O.2     1  UNL1       -0.2522
      2 C         142.6648  141.5426  164.3883 C.2     1  UNL1        0.3082
      3 N         143.6383  142.4283  163.6688 N.am    1  UNL1       -0.2656
      4 N         142.5773  141.5846  165.8852 N.am    1  UNL1       -0.2576
      5 C         143.4633  142.5124  166.6625 C.3     1  UNL1        0.1018
      6 C         143.3758  142.5544  168.1593 C.3     1  UNL1        0.0671
      7 C         142.4022  141.6686  168.8789 C.ar    1  UNL1        0.0586
      8 N         142.3147  141.7107  170.3757 N.ar    1  UNL1       -0.2483
      9 C         141.3412  140.8249  171.0952 C.ar    1  UNL1        0.0984
     10 C         140.4552  139.8972  170.3179 C.ar    1  UNL1        0.0204
     11 C         140.5427  139.8551  168.8210 C.ar    1  UNL1        0.0004
     12 C         141.5162  140.7409  168.1016 C.ar    1  UNL1        0.0136
     13 C         141.6038  140.6989  166.6046 C.3     1  UNL1        0.1231
     14 H         144.2198  143.0373  164.1790 H       1  UNL1        0.1565
     15 C         140.7178  139.7711  165.8273 C.ar    1  UNL1        0.0001
     16 C         141.2066  138.4021  165.4568 C.ar    1  UNL1       -0.0000
     17 C         140.3206  137.4744  164.6795 C.ar    1  UNL1        0.0294
     18 C         138.9458  137.9155  164.2726 C.ar    1  UNL1        0.1401
     19 F         138.0598  136.9878  163.4953 F       1  UNL1       -0.2042
     20 C         138.4571  139.2844  164.6431 C.ar    1  UNL1        0.0294
     21 C         139.3431  140.2122  165.4205 C.ar    1  UNL1       -0.0000
     22 C         143.7258  142.3863  162.1720 C.ar    1  UNL1        0.0906
     23 C         144.3390  141.1996  161.4895 C.ar    1  UNL1        0.1199
     24 N         144.4265  141.1576  159.9926 N.ar    1  UNL1       -0.1911
     25 C         143.9009  142.3023  159.1782 C.ar    1  UNL1        0.3247
     26 N         143.2877  143.4890  159.8606 N.ar    1  UNL1       -0.1911
     27 C         143.2002  143.5311  161.3575 C.ar    1  UNL1        0.1199
     28 O         143.9884  142.2602  157.6814 O.3     1  UNL1       -0.4223
     29 C         145.3273  142.1758  157.0105 C.ar    1  UNL1        0.1488
     30 C         145.4739  141.4238  155.7209 C.ar    1  UNL1        0.0399
     31 C         146.8128  141.3394  155.0500 C.ar    1  UNL1        0.0328
     32 C         148.0051  142.0070  155.6686 C.ar    1  UNL1        0.1403
     33 F         149.3441  141.9226  154.9976 F       1  UNL1       -0.2042
     34 C         147.8586  142.7590  156.9582 C.ar    1  UNL1        0.0328
     35 C         146.5196  142.8435  157.6291 C.ar    1  UNL1        0.0399
@<TRIPOS>BOND
     1     1     2    2
     2     2     3   am
     3     3    22    1
     4    22    23   ar
     5    23    24   ar
     6    24    25   ar
     7    25    28    1
     8    28    29    1
     9    29    30   ar
    10    30    31   ar
    11    31    32   ar
    12    32    33    1
    13    32    34   ar
    14    34    35   ar
    15    25    26   ar
    16    26    27   ar
    17     2     4   am
    18     4     5    1
    19     5     6    1
    20     6     7    1
    21     7     8   ar
    22     8     9   ar
    23     9    10   ar
    24    10    11   ar
    25    11    12   ar
    26    12    13    1
    27    13    15    1
    28    15    16   ar
    29    16    17   ar
    30    17    18   ar
    31    18    19    1
    32    18    20   ar
    33    20    21   ar
    34    27    22   ar
    35    13     4    1
    36    21    15   ar
    37    35    29   ar
    38    12     7   ar
    39     3    14    1
