@<TRIPOS>MOLECULE
*****
 39 43 0 0 0
SMALL
GASTEIGER

@<TRIPOS>ATOM
      1 O         142.1519  140.6350  159.0943 O.2     1  UNL1       -0.2733
      2 C         143.0363  139.5105  158.6433 C.2     1  UNL1        0.2425
      3 N         143.6703  138.6028  159.6553 N.am    1  UNL1       -0.3018
      4 H         144.2508  137.8648  159.3593 H       1  UNL1        0.1495
      5 C         143.4199  138.8197  161.1183 C.3     1  UNL1        0.1035
      6 C         144.0489  139.6615  162.1886 C.3     1  UNL1        0.0933
      7 N         143.0658  139.1263  163.1873 N.3     1  UNL1       -0.2711
      8 C         142.4368  138.2845  162.1169 C.3     1  UNL1        0.0933
      9 C         142.8154  139.3432  164.6502 C.3     1  UNL1        0.0578
     10 C         143.5435  138.5145  165.6666 C.3     1  UNL1        0.0187
     11 C         143.2931  138.7313  167.1296 C.3     1  UNL1        0.0325
     12 C         142.3146  139.7768  167.5762 C.3     1  UNL1        0.1070
     13 O         142.7562  139.2473  168.9084 O.3     1  UNL1       -0.3827
     14 C         141.5865  140.6055  166.5597 C.3     1  UNL1        0.0325
     15 C         141.8369  140.3887  165.0968 C.3     1  UNL1        0.0187
     16 H         143.4097  138.5428  168.7758 H       1  UNL1        0.2107
     17 C         141.4894  140.6384  168.4854 C.ar    1  UNL1        0.0017
     18 C         141.9536  142.0218  168.8330 C.ar    1  UNL1       -0.0020
     19 C         141.1285  142.8835  169.7422 C.ar    1  UNL1       -0.0002
     20 C         139.8391  142.3617  170.3038 C.ar    1  UNL1       -0.0000
     21 C         139.3750  140.9784  169.9562 C.ar    1  UNL1       -0.0002
     22 C         140.2001  140.1167  169.0470 C.ar    1  UNL1       -0.0020
     23 C         143.2866  139.2937  157.1803 C.3     1  UNL1        0.1747
     24 N         143.5909  137.9173  156.6674 N.pl3   1  UNL1       -0.3106
     25 H         144.4892  137.5335  156.7905 H       1  UNL1        0.1486
     26 C         142.5267  137.1257  155.9668 C.ar    1  UNL1        0.1320
     27 N         141.4388  137.8330  155.2143 N.ar    1  UNL1       -0.2092
     28 C         140.3746  137.0414  154.5138 C.ar    1  UNL1        0.2000
     29 N         140.3982  135.5425  154.5658 N.ar    1  UNL1       -0.2239
     30 C         141.4861  134.8352  155.3183 C.ar    1  UNL1        0.0857
     31 C         141.5097  133.3363  155.3703 C.ar    1  UNL1        0.0192
     32 C         142.5975  132.6290  156.1228 C.ar    1  UNL1        0.0054
     33 C         143.6618  133.4206  156.8234 C.ar    1  UNL1        0.0716
     34 C         143.6382  134.9195  156.7714 C.ar    1  UNL1        0.0081
     35 C         142.5503  135.6268  156.0188 C.ar    1  UNL1        0.0491
     36 C         144.7496  132.7133  157.5759 C.3     1  UNL1        0.4186
     37 F         145.8375  132.0059  158.3284 F       1  UNL1       -0.1659
     38 F         144.5272  133.6202  158.7497 F       1  UNL1       -0.1659
     39 F         144.9720  131.8064  156.4020 F       1  UNL1       -0.1659
@<TRIPOS>BOND
     1     1     2    2
     2     2    23    1
     3    23    24    1
     4    24    26    1
     5    26    27   ar
     6    27    28   ar
     7    28    29   ar
     8    29    30   ar
     9    30    31   ar
    10    31    32   ar
    11    32    33   ar
    12    33    36    1
    13    36    37    1
    14    36    38    1
    15    36    39    1
    16    33    34   ar
    17    34    35   ar
    18     2     3   am
    19     3     5    1
    20     5     6    1
    21     6     7    1
    22     9     7    1
    23     9    10    1
    24    10    11    1
    25    11    12    1
    26    12    13    1
    27    12    17    1
    28    17    18   ar
    29    18    19   ar
    30    19    20   ar
    31    20    21   ar
    32    21    22   ar
    33    12    14    1
    34    14    15    1
    35     7     8    1
    36    35    26   ar
    37     8     5    1
    38    35    30   ar
    39    15     9    1
    40    22    17   ar
    41    24    25    1
    42     3     4    1
    43    13    16    1
@<TRIPOS>MOLECULE
*****
 39 43 0 0 0
SMALL
GASTEIGER

@<TRIPOS>ATOM
      1 O         142.3956  138.4049  159.9278 O.2     1  UNL1       -0.2733
      2 C         141.1358  138.3564  159.1150 C.2     1  UNL1        0.2425
      3 N         139.8046  138.5307  159.7839 N.am    1  UNL1       -0.3018
      4 H         138.9777  138.4989  159.2505 H       1  UNL1        0.1495
      5 C         139.7331  138.7534  161.2656 C.3     1  UNL1        0.1035
      6 C         139.5431  139.9496  162.1504 C.3     1  UNL1        0.0933
      7 N         139.6321  139.0683  163.3610 N.3     1  UNL1       -0.2711
      8 C         139.8222  137.8721  162.4761 C.3     1  UNL1        0.0933
      9 C         139.5607  139.2910  164.8426 C.3     1  UNL1        0.0578
     10 C         138.3403  138.8699  165.6063 C.3     1  UNL1        0.0187
     11 C         138.2689  139.0925  167.0880 C.3     1  UNL1        0.0325
     12 C         139.4178  139.7363  167.8060 C.3     1  UNL1        0.1070
     13 O         138.4838  139.5117  168.9580 O.3     1  UNL1       -0.3827
     14 C         140.6383  140.1575  167.0422 C.3     1  UNL1        0.0325
     15 C         140.7097  139.9348  165.5605 C.3     1  UNL1        0.0187
     16 H         137.6716  139.0888  168.6379 H       1  UNL1        0.2107
     17 C         140.2424  140.3021  168.9239 C.ar    1  UNL1        0.0017
     18 C         141.6215  139.7715  169.1815 C.ar    1  UNL1       -0.0020
     19 C         142.4462  140.3372  170.2995 C.ar    1  UNL1       -0.0002
     20 C         141.8916  141.4337  171.1600 C.ar    1  UNL1       -0.0000
     21 C         140.5125  141.9643  170.9024 C.ar    1  UNL1       -0.0002
     22 C         139.6878  141.3985  169.7844 C.ar    1  UNL1       -0.0020
     23 C         141.2073  138.1337  157.6334 C.3     1  UNL1        0.1747
     24 N         142.1883  137.1491  157.0694 N.pl3   1  UNL1       -0.3106
     25 H         143.0728  137.0407  157.4880 H       1  UNL1        0.1486
     26 C         141.8217  136.3295  155.8677 C.ar    1  UNL1        0.1320
     27 N         140.8374  136.8617  154.8688 N.ar    1  UNL1       -0.2092
     28 C         140.4708  136.0422  153.6672 C.ar    1  UNL1        0.2000
     29 N         141.0886  134.6904  153.4645 N.ar    1  UNL1       -0.2239
     30 C         142.0729  134.1582  154.4634 C.ar    1  UNL1        0.0857
     31 C         142.6906  132.8064  154.2606 C.ar    1  UNL1        0.0192
     32 C         143.6750  132.2742  155.2595 C.ar    1  UNL1        0.0054
     33 C         144.0416  133.0938  156.4612 C.ar    1  UNL1        0.0716
     34 C         143.4238  134.4455  156.6639 C.ar    1  UNL1        0.0081
     35 C         142.4395  134.9778  155.6650 C.ar    1  UNL1        0.0491
     36 C         145.0259  132.5615  157.4601 C.3     1  UNL1        0.4186
     37 F         146.0103  132.0292  158.4590 F       1  UNL1       -0.1659
     38 F         144.5037  133.5224  158.4867 F       1  UNL1       -0.1659
     39 F         145.5481  131.6007  156.4335 F       1  UNL1       -0.1659
@<TRIPOS>BOND
     1     1     2    2
     2     2    23    1
     3    23    24    1
     4    24    26    1
     5    26    27   ar
     6    27    28   ar
     7    28    29   ar
     8    29    30   ar
     9    30    31   ar
    10    31    32   ar
    11    32    33   ar
    12    33    36    1
    13    36    37    1
    14    36    38    1
    15    36    39    1
    16    33    34   ar
    17    34    35   ar
    18     2     3   am
    19     3     5    1
    20     5     6    1
    21     6     7    1
    22     9     7    1
    23     9    10    1
    24    10    11    1
    25    11    12    1
    26    12    13    1
    27    12    17    1
    28    17    18   ar
    29    18    19   ar
    30    19    20   ar
    31    20    21   ar
    32    21    22   ar
    33    12    14    1
    34    14    15    1
    35     7     8    1
    36    35    26   ar
    37     8     5    1
    38    35    30   ar
    39    15     9    1
    40    22    17   ar
    41    24    25    1
    42     3     4    1
    43    13    16    1
@<TRIPOS>MOLECULE
*****
 39 43 0 0 0
SMALL
GASTEIGER

@<TRIPOS>ATOM
      1 O         140.6223  140.1118  159.4261 O.2     1  UNL1       -0.2733
      2 C         139.7585  138.9872  158.9370 C.2     1  UNL1        0.2425
      3 N         138.9556  138.1792  159.9129 N.am    1  UNL1       -0.3018
      4 H         138.3886  137.4411  159.5919 H       1  UNL1        0.1495
      5 C         139.0165  138.4958  161.3779 C.3     1  UNL1        0.1035
      6 C         139.7760  137.9497  162.5504 C.3     1  UNL1        0.0933
      7 N         139.1025  138.9435  163.4497 N.3     1  UNL1       -0.2711
      8 C         138.3429  139.4896  162.2772 C.3     1  UNL1        0.0933
      9 C         139.1634  139.2601  164.9146 C.3     1  UNL1        0.0578
     10 C         138.1535  138.6679  165.8524 C.3     1  UNL1        0.0187
     11 C         138.2144  138.9845  167.3174 C.3     1  UNL1        0.0325
     12 C         139.2850  139.8932  167.8445 C.3     1  UNL1        0.1070
     13 O         138.5595  139.5787  169.1191 O.3     1  UNL1       -0.3827
     14 C         140.2949  140.4854  166.9066 C.3     1  UNL1        0.0325
     15 C         140.2340  140.1689  165.4417 C.3     1  UNL1        0.0187
     16 H         137.8183  138.9821  168.9305 H       1  UNL1        0.2107
     17 C         140.1037  140.6928  168.8142 C.ar    1  UNL1        0.0017
     18 C         140.5586  142.0751  168.4506 C.ar    1  UNL1       -0.0020
     19 C         141.3773  142.8747  169.4203 C.ar    1  UNL1       -0.0002
     20 C         141.7411  142.2919  170.7538 C.ar    1  UNL1       -0.0000
     21 C         141.2863  140.9096  171.1174 C.ar    1  UNL1       -0.0002
     22 C         140.4675  140.1100  170.1477 C.ar    1  UNL1       -0.0020
     23 C         139.6977  138.6707  157.4721 C.3     1  UNL1        0.1747
     24 N         139.3489  137.2842  157.0182 N.pl3   1  UNL1       -0.3106
     25 H         139.0605  136.6094  157.6744 H       1  UNL1        0.1486
     26 C         139.4397  136.9259  155.5644 C.ar    1  UNL1        0.1320
     27 N         138.4184  137.4485  154.5980 N.ar    1  UNL1       -0.2092
     28 C         138.5092  137.0902  153.1443 C.ar    1  UNL1        0.2000
     29 N         139.6212  136.2093  152.6570 N.ar    1  UNL1       -0.2239
     30 C         140.6425  135.6868  153.6234 C.ar    1  UNL1        0.0857
     31 C         141.7545  134.8059  153.1360 C.ar    1  UNL1        0.0192
     32 C         142.7757  134.2833  154.1024 C.ar    1  UNL1        0.0054
     33 C         142.6849  134.6416  155.5562 C.ar    1  UNL1        0.0716
     34 C         141.5729  135.5225  156.0435 C.ar    1  UNL1        0.0081
     35 C         140.5517  136.0451  155.0771 C.ar    1  UNL1        0.0491
     36 C         143.7062  134.1190  156.5226 C.3     1  UNL1        0.4186
     37 F         144.7275  133.5963  157.4890 F       1  UNL1       -0.1659
     38 F         143.3171  135.1809  157.5080 F       1  UNL1       -0.1659
     39 F         144.0952  133.0571  155.5373 F       1  UNL1       -0.1659
@<TRIPOS>BOND
     1     1     2    2
     2     2    23    1
     3    23    24    1
     4    24    26    1
     5    26    27   ar
     6    27    28   ar
     7    28    29   ar
     8    29    30   ar
     9    30    31   ar
    10    31    32   ar
    11    32    33   ar
    12    33    36    1
    13    36    37    1
    14    36    38    1
    15    36    39    1
    16    33    34   ar
    17    34    35   ar
    18     2     3   am
    19     3     5    1
    20     5     6    1
    21     6     7    1
    22     9     7    1
    23     9    10    1
    24    10    11    1
    25    11    12    1
    26    12    13    1
    27    12    17    1
    28    17    18   ar
    29    18    19   ar
    30    19    20   ar
    31    20    21   ar
    32    21    22   ar
    33    12    14    1
    34    14    15    1
    35     7     8    1
    36    35    26   ar
    37     8     5    1
    38    35    30   ar
    39    15     9    1
    40    22    17   ar
    41    24    25    1
    42     3     4    1
    43    13    16    1
@<TRIPOS>MOLECULE
*****
 39 43 0 0 0
SMALL
GASTEIGER

@<TRIPOS>ATOM
      1 O         143.8933  145.0316  162.5490 O.2     1  UNL1       -0.2733
      2 C         142.6914  144.1687  162.7961 C.2     1  UNL1        0.2425
      3 N         142.3374  143.0803  161.8265 N.am    1  UNL1       -0.3018
      4 H         141.5486  142.5140  161.9887 H       1  UNL1        0.1495
      5 C         143.1854  142.8548  160.6098 C.3     1  UNL1        0.1035
      6 C         143.2012  143.3992  159.2123 C.3     1  UNL1        0.0933
      7 N         144.3845  142.5358  158.8893 N.3     1  UNL1       -0.2711
      8 C         144.3687  141.9914  160.2869 C.3     1  UNL1        0.0933
      9 C         145.2324  142.3102  157.6727 C.3     1  UNL1        0.0578
     10 C         144.6958  141.5113  156.5222 C.3     1  UNL1        0.0187
     11 C         145.5437  141.2857  155.3055 C.3     1  UNL1        0.0325
     12 C         146.9283  141.8590  155.2395 C.3     1  UNL1        0.1070
     13 O         146.8648  141.1770  153.9050 O.3     1  UNL1       -0.3827
     14 C         147.4649  142.6579  156.3901 C.3     1  UNL1        0.0325
     15 C         146.6170  142.8835  157.6067 C.3     1  UNL1        0.0187
     16 H         146.0008  140.7484  153.8017 H       1  UNL1        0.2107
     17 C         148.2908  142.1954  154.7100 C.ar    1  UNL1        0.0017
     18 C         149.5068  141.5470  155.3024 C.ar    1  UNL1       -0.0020
     19 C         150.8693  141.8834  154.7730 C.ar    1  UNL1       -0.0002
     20 C         151.0159  142.8682  153.6511 C.ar    1  UNL1       -0.0000
     21 C         149.7999  143.5166  153.0587 C.ar    1  UNL1       -0.0002
     22 C         148.4373  143.1803  153.5881 C.ar    1  UNL1       -0.0020
     23 C         141.8435  144.3943  164.0127 C.3     1  UNL1        0.1747
     24 N         141.4278  143.2309  164.8634 N.pl3   1  UNL1       -0.3106
     25 H         141.9059  143.0387  165.7022 H       1  UNL1        0.1486
     26 C         140.2835  142.3603  164.4359 C.ar    1  UNL1        0.1320
     27 N         139.6891  142.5208  163.0681 N.ar    1  UNL1       -0.2092
     28 C         138.5449  141.6502  162.6407 C.ar    1  UNL1        0.2000
     29 N         137.9950  140.6191  163.5811 N.ar    1  UNL1       -0.2239
     30 C         138.5893  140.4586  164.9489 C.ar    1  UNL1        0.0857
     31 C         138.0394  139.4275  165.8893 C.ar    1  UNL1        0.0192
     32 C         138.6337  139.2669  167.2571 C.ar    1  UNL1        0.0054
     33 C         139.7780  140.1376  167.6846 C.ar    1  UNL1        0.0716
     34 C         140.3279  141.1687  166.7442 C.ar    1  UNL1        0.0081
     35 C         139.7335  141.3292  165.3763 C.ar    1  UNL1        0.0491
     36 C         140.3723  139.9770  169.0524 C.3     1  UNL1        0.4186
     37 F         140.9667  139.8165  170.4203 F       1  UNL1       -0.1659
     38 F         139.1084  140.5050  169.6636 F       1  UNL1       -0.1659
     39 F         141.6363  139.4490  168.4412 F       1  UNL1       -0.1659
@<TRIPOS>BOND
     1     1     2    2
     2     2    23    1
     3    23    24    1
     4    24    26    1
     5    26    27   ar
     6    27    28   ar
     7    28    29   ar
     8    29    30   ar
     9    30    31   ar
    10    31    32   ar
    11    32    33   ar
    12    33    36    1
    13    36    37    1
    14    36    38    1
    15    36    39    1
    16    33    34   ar
    17    34    35   ar
    18     2     3   am
    19     3     5    1
    20     5     6    1
    21     6     7    1
    22     9     7    1
    23     9    10    1
    24    10    11    1
    25    11    12    1
    26    12    13    1
    27    12    17    1
    28    17    18   ar
    29    18    19   ar
    30    19    20   ar
    31    20    21   ar
    32    21    22   ar
    33    12    14    1
    34    14    15    1
    35     7     8    1
    36    35    26   ar
    37     8     5    1
    38    35    30   ar
    39    15     9    1
    40    22    17   ar
    41    24    25    1
    42     3     4    1
    43    13    16    1
@<TRIPOS>MOLECULE
*****
 39 43 0 0 0
SMALL
GASTEIGER

@<TRIPOS>ATOM
      1 O         138.1746  143.5589  160.9351 O.2     1  UNL1       -0.2733
      2 C         138.5958  142.1846  160.5061 C.2     1  UNL1        0.2425
      3 N         139.1700  141.9693  159.1372 N.am    1  UNL1       -0.3018
      4 H         139.4464  141.0673  158.8556 H       1  UNL1        0.1495
      5 C         139.3231  143.1283  158.1973 C.3     1  UNL1        0.1035
      6 C         138.6910  143.5308  156.8980 C.3     1  UNL1        0.0933
      7 N         139.5396  144.7673  156.8682 N.3     1  UNL1       -0.2711
      8 C         140.1717  144.3648  158.1676 C.3     1  UNL1        0.0933
      9 C         139.6928  145.9263  155.9284 C.3     1  UNL1        0.0578
     10 C         140.5372  145.7865  154.6966 C.3     1  UNL1        0.0187
     11 C         140.6904  146.9455  153.7567 C.3     1  UNL1        0.0325
     12 C         139.9990  148.2443  154.0486 C.3     1  UNL1        0.1070
     13 O         140.6863  148.5982  152.7632 O.3     1  UNL1       -0.3827
     14 C         139.1545  148.3840  155.2805 C.3     1  UNL1        0.0325
     15 C         139.0014  147.2251  156.2203 C.3     1  UNL1        0.0187
     16 H         141.1886  147.8324  152.4436 H       1  UNL1        0.2107
     17 C         139.5464  149.6659  153.8942 C.ar    1  UNL1        0.0017
     18 C         139.0449  150.4270  155.0855 C.ar    1  UNL1       -0.0020
     19 C         138.5922  151.8487  154.9311 C.ar    1  UNL1       -0.0002
     20 C         138.6410  152.5093  153.5852 C.ar    1  UNL1       -0.0000
     21 C         139.1424  151.7482  152.3939 C.ar    1  UNL1       -0.0002
     22 C         139.5951  150.3265  152.5483 C.ar    1  UNL1       -0.0020
     23 C         138.4426  141.0257  161.4460 C.3     1  UNL1        0.1747
     24 N         139.6223  140.5381  162.2339 N.pl3   1  UNL1       -0.3106
     25 H         140.0655  139.6948  161.9856 H       1  UNL1        0.1486
     26 C         140.1266  141.3354  163.4001 C.ar    1  UNL1        0.1320
     27 N         140.9112  142.5923  163.1662 N.ar    1  UNL1       -0.2092
     28 C         141.4155  143.3895  164.3324 C.ar    1  UNL1        0.2000
     29 N         141.1353  142.9299  165.7324 N.ar    1  UNL1       -0.2239
     30 C         140.3508  141.6731  165.9664 C.ar    1  UNL1        0.0857
     31 C         140.0706  141.2134  167.3665 C.ar    1  UNL1        0.0192
     32 C         139.2861  139.9566  167.6004 C.ar    1  UNL1        0.0054
     33 C         138.7817  139.1592  166.4342 C.ar    1  UNL1        0.0716
     34 C         139.0619  139.6189  165.0341 C.ar    1  UNL1        0.0081
     35 C         139.8464  140.8758  164.8002 C.ar    1  UNL1        0.0491
     36 C         137.9972  137.9024  166.6681 C.3     1  UNL1        0.4186
     37 F         137.2126  136.6455  166.9021 F       1  UNL1       -0.1659
     38 F         138.7495  137.2266  165.5603 F       1  UNL1       -0.1659
     39 F         137.2448  138.5782  167.7759 F       1  UNL1       -0.1659
@<TRIPOS>BOND
     1     1     2    2
     2     2    23    1
     3    23    24    1
     4    24    26    1
     5    26    27   ar
     6    27    28   ar
     7    28    29   ar
     8    29    30   ar
     9    30    31   ar
    10    31    32   ar
    11    32    33   ar
    12    33    36    1
    13    36    37    1
    14    36    38    1
    15    36    39    1
    16    33    34   ar
    17    34    35   ar
    18     2     3   am
    19     3     5    1
    20     5     6    1
    21     6     7    1
    22     9     7    1
    23     9    10    1
    24    10    11    1
    25    11    12    1
    26    12    13    1
    27    12    17    1
    28    17    18   ar
    29    18    19   ar
    30    19    20   ar
    31    20    21   ar
    32    21    22   ar
    33    12    14    1
    34    14    15    1
    35     7     8    1
    36    35    26   ar
    37     8     5    1
    38    35    30   ar
    39    15     9    1
    40    22    17   ar
    41    24    25    1
    42     3     4    1
    43    13    16    1
@<TRIPOS>MOLECULE
*****
 39 43 0 0 0
SMALL
GASTEIGER

@<TRIPOS>ATOM
      1 O         144.9045  142.4776  162.4145 O.2     1  UNL1       -0.2733
      2 C         143.9216  143.5807  162.1555 C.2     1  UNL1        0.2425
      3 N         142.9895  143.4948  160.9834 N.am    1  UNL1       -0.3018
      4 H         142.3444  144.2188  160.8134 H       1  UNL1        0.1495
      5 C         143.0402  142.3057  160.0704 C.3     1  UNL1        0.1035
      6 C         144.0852  141.6898  159.1882 C.3     1  UNL1        0.0933
      7 N         143.1119  140.6242  158.7792 N.3     1  UNL1       -0.2711
      8 C         142.0669  141.2402  159.6615 C.3     1  UNL1        0.0933
      9 C         143.1627  139.4351  157.8662 C.3     1  UNL1        0.0578
     10 C         143.7323  139.5735  156.4855 C.3     1  UNL1        0.0187
     11 C         143.7830  138.3844  155.5725 C.3     1  UNL1        0.0325
     12 C         143.2641  137.0570  156.0402 C.3     1  UNL1        0.1070
     13 O         143.7069  136.6901  154.6548 O.3     1  UNL1       -0.3827
     14 C         142.6945  136.9187  157.4209 C.3     1  UNL1        0.0325
     15 C         142.6438  138.1077  158.3339 C.3     1  UNL1        0.0187
     16 H         144.0760  137.4723  154.2155 H       1  UNL1        0.2107
     17 C         142.8990  135.6022  156.0267 C.ar    1  UNL1        0.0017
     18 C         143.6036  134.6437  156.9404 C.ar    1  UNL1       -0.0020
     19 C         143.2385  133.1889  156.9270 C.ar    1  UNL1       -0.0002
     20 C         142.1688  132.6926  155.9999 C.ar    1  UNL1       -0.0000
     21 C         141.4642  133.6511  155.0863 C.ar    1  UNL1       -0.0002
     22 C         141.8293  135.1059  155.0997 C.ar    1  UNL1       -0.0020
     23 C         143.8709  144.7697  163.0685 C.3     1  UNL1        0.1747
     24 N         142.6775  144.9875  163.9507 N.pl3   1  UNL1       -0.3106
     25 H         142.7975  145.1071  164.9205 H       1  UNL1        0.1486
     26 C         141.3011  145.0232  163.3553 C.ar    1  UNL1        0.1320
     27 N         140.9815  146.0004  162.2632 N.ar    1  UNL1       -0.2092
     28 C         139.6052  146.0360  161.6678 C.ar    1  UNL1        0.2000
     29 N         138.5485  145.0943  162.1645 N.ar    1  UNL1       -0.2239
     30 C         138.8682  144.1171  163.2566 C.ar    1  UNL1        0.0857
     31 C         137.8115  143.1754  163.7534 C.ar    1  UNL1        0.0192
     32 C         138.1312  142.1981  164.8455 C.ar    1  UNL1        0.0054
     33 C         139.5075  142.1625  165.4409 C.ar    1  UNL1        0.0716
     34 C         140.5642  143.1042  164.9442 C.ar    1  UNL1        0.0081
     35 C         140.2445  144.0815  163.8520 C.ar    1  UNL1        0.0491
     36 C         139.8272  141.1853  166.5330 C.3     1  UNL1        0.4186
     37 F         140.1468  140.2080  167.6252 F       1  UNL1       -0.1659
     38 F         138.6876  140.3167  166.0893 F       1  UNL1       -0.1659
     39 F         140.9667  142.0538  166.9767 F       1  UNL1       -0.1659
@<TRIPOS>BOND
     1     1     2    2
     2     2    23    1
     3    23    24    1
     4    24    26    1
     5    26    27   ar
     6    27    28   ar
     7    28    29   ar
     8    29    30   ar
     9    30    31   ar
    10    31    32   ar
    11    32    33   ar
    12    33    36    1
    13    36    37    1
    14    36    38    1
    15    36    39    1
    16    33    34   ar
    17    34    35   ar
    18     2     3   am
    19     3     5    1
    20     5     6    1
    21     6     7    1
    22     9     7    1
    23     9    10    1
    24    10    11    1
    25    11    12    1
    26    12    13    1
    27    12    17    1
    28    17    18   ar
    29    18    19   ar
    30    19    20   ar
    31    20    21   ar
    32    21    22   ar
    33    12    14    1
    34    14    15    1
    35     7     8    1
    36    35    26   ar
    37     8     5    1
    38    35    30   ar
    39    15     9    1
    40    22    17   ar
    41    24    25    1
    42     3     4    1
    43    13    16    1
@<TRIPOS>MOLECULE
*****
 39 43 0 0 0
SMALL
GASTEIGER

@<TRIPOS>ATOM
      1 O         141.7329  143.9483  163.6795 O.2     1  UNL1       -0.2733
      2 C         141.6036  142.4540  163.7025 C.2     1  UNL1        0.2425
      3 N         141.1437  141.7221  162.4766 N.am    1  UNL1       -0.3018
      4 H         141.0588  140.7414  162.4917 H       1  UNL1        0.1495
      5 C         140.8132  142.4844  161.2278 C.3     1  UNL1        0.1035
      6 C         141.5766  142.8998  160.0053 C.3     1  UNL1        0.0933
      7 N         140.3456  143.5625  159.4616 N.3     1  UNL1       -0.2711
      8 C         139.5822  143.1471  160.6842 C.3     1  UNL1        0.0933
      9 C         140.0151  144.3248  158.2128 C.3     1  UNL1        0.0578
     10 C         139.3810  143.6207  157.0501 C.3     1  UNL1        0.0187
     11 C         139.0504  144.3830  155.8012 C.3     1  UNL1        0.0325
     12 C         139.3539  145.8495  155.7152 C.3     1  UNL1        0.1070
     13 O         138.7527  145.6279  154.3589 O.3     1  UNL1       -0.3827
     14 C         139.9880  146.5536  156.8780 C.3     1  UNL1        0.0325
     15 C         140.3186  145.7913  158.1268 C.3     1  UNL1        0.0187
     16 H         138.4999  144.6961  154.2656 H       1  UNL1        0.2107
     17 C         139.4486  147.2389  155.1581 C.ar    1  UNL1        0.0017
     18 C         140.2269  147.4916  153.9010 C.ar    1  UNL1       -0.0020
     19 C         140.3217  148.8811  153.3439 C.ar    1  UNL1       -0.0002
     20 C         139.6380  150.0180  154.0440 C.ar    1  UNL1       -0.0000
     21 C         138.8597  149.7653  155.3011 C.ar    1  UNL1       -0.0002
     22 C         138.7649  148.3759  155.8582 C.ar    1  UNL1       -0.0020
     23 C         141.9341  141.6917  164.9514 C.3     1  UNL1        0.1747
     24 N         141.5229  140.2554  165.0843 N.pl3   1  UNL1       -0.3106
     25 H         141.9907  139.5596  164.5682 H       1  UNL1        0.1486
     26 C         140.3988  139.8790  166.0036 C.ar    1  UNL1        0.1320
     27 N         139.2496  139.0642  165.4887 N.ar    1  UNL1       -0.2092
     28 C         138.1257  138.6879  166.4079 C.ar    1  UNL1        0.2000
     29 N         138.1510  139.1265  167.8422 N.ar    1  UNL1       -0.2239
     30 C         139.3002  139.9413  168.3571 C.ar    1  UNL1        0.0857
     31 C         139.3255  140.3799  169.7913 C.ar    1  UNL1        0.0192
     32 C         140.4747  141.1948  170.3063 C.ar    1  UNL1        0.0054
     33 C         141.5987  141.5711  169.3870 C.ar    1  UNL1        0.0716
     34 C         141.5734  141.1326  167.9527 C.ar    1  UNL1        0.0081
     35 C         140.4241  140.3176  167.4378 C.ar    1  UNL1        0.0491
     36 C         142.7479  142.3860  169.9019 C.3     1  UNL1        0.4186
     37 F         143.8972  143.2010  170.4169 F       1  UNL1       -0.1659
     38 F         143.6461  141.1899  169.7903 F       1  UNL1       -0.1659
     39 F         141.8498  143.5822  170.0135 F       1  UNL1       -0.1659
@<TRIPOS>BOND
     1     1     2    2
     2     2    23    1
     3    23    24    1
     4    24    26    1
     5    26    27   ar
     6    27    28   ar
     7    28    29   ar
     8    29    30   ar
     9    30    31   ar
    10    31    32   ar
    11    32    33   ar
    12    33    36    1
    13    36    37    1
    14    36    38    1
    15    36    39    1
    16    33    34   ar
    17    34    35   ar
    18     2     3   am
    19     3     5    1
    20     5     6    1
    21     6     7    1
    22     9     7    1
    23     9    10    1
    24    10    11    1
    25    11    12    1
    26    12    13    1
    27    12    17    1
    28    17    18   ar
    29    18    19   ar
    30    19    20   ar
    31    20    21   ar
    32    21    22   ar
    33    12    14    1
    34    14    15    1
    35     7     8    1
    36    35    26   ar
    37     8     5    1
    38    35    30   ar
    39    15     9    1
    40    22    17   ar
    41    24    25    1
    42     3     4    1
    43    13    16    1
@<TRIPOS>MOLECULE
*****
 39 43 0 0 0
SMALL
GASTEIGER

@<TRIPOS>ATOM
      1 O         139.9561  141.4234  159.5963 O.2     1  UNL1       -0.2733
      2 C         139.3728  140.1803  158.9925 C.2     1  UNL1        0.2425
      3 N         138.8682  139.0811  159.8798 N.am    1  UNL1       -0.3018
      4 H         138.4854  138.2652  159.4835 H       1  UNL1        0.1495
      5 C         138.9468  139.2251  161.3708 C.3     1  UNL1        0.1035
      6 C         139.8902  138.7469  162.4343 C.3     1  UNL1        0.0933
      7 N         139.0579  139.4288  163.4794 N.3     1  UNL1       -0.2711
      8 C         138.1145  139.9071  162.4159 C.3     1  UNL1        0.0933
      9 C         139.1365  139.5728  164.9704 C.3     1  UNL1        0.0578
     10 C         138.0637  138.9848  165.8382 C.3     1  UNL1        0.0187
     11 C         138.1422  139.1288  167.3293 C.3     1  UNL1        0.0325
     12 C         139.2936  139.8608  167.9524 C.3     1  UNL1        0.1070
     13 O         138.5283  139.4812  169.1854 O.3     1  UNL1       -0.3827
     14 C         140.3665  140.4489  167.0845 C.3     1  UNL1        0.0325
     15 C         140.2879  140.3049  165.5936 C.3     1  UNL1        0.0187
     16 H         137.7328  138.9870  168.9328 H       1  UNL1        0.2107
     17 C         140.1793  140.4610  169.0037 C.ar    1  UNL1        0.0017
     18 C         139.6895  141.6148  169.8277 C.ar    1  UNL1       -0.0020
     19 C         140.5751  142.2151  170.8791 C.ar    1  UNL1       -0.0002
     20 C         141.9506  141.6615  171.1065 C.ar    1  UNL1       -0.0000
     21 C         142.4403  140.5078  170.2825 C.ar    1  UNL1       -0.0002
     22 C         141.5547  139.9075  169.2312 C.ar    1  UNL1       -0.0020
     23 C         139.2942  140.0364  157.5015 C.3     1  UNL1        0.1747
     24 N         137.9636  139.8479  156.8354 N.pl3   1  UNL1       -0.3106
     25 H         137.2546  139.3360  157.2878 H       1  UNL1        0.1486
     26 C         137.7130  140.4392  155.4797 C.ar    1  UNL1        0.1320
     27 N         138.8645  140.7272  154.5627 N.ar    1  UNL1       -0.2092
     28 C         138.6140  141.3185  153.2071 C.ar    1  UNL1        0.2000
     29 N         137.2119  141.6218  152.7687 N.ar    1  UNL1       -0.2239
     30 C         136.0604  141.3338  153.6857 C.ar    1  UNL1        0.0857
     31 C         134.6584  141.6372  153.2473 C.ar    1  UNL1        0.0192
     32 C         133.5069  141.3492  154.1643 C.ar    1  UNL1        0.0054
     33 C         133.7574  140.7578  155.5200 C.ar    1  UNL1        0.0716
     34 C         135.1595  140.4545  155.9584 C.ar    1  UNL1        0.0081
     35 C         136.3110  140.7425  155.0413 C.ar    1  UNL1        0.0491
     36 C         132.6059  140.4698  156.4370 C.3     1  UNL1        0.4186
     37 F         131.4543  140.1818  157.3541 F       1  UNL1       -0.1659
     38 F         133.4689  139.5297  157.2253 F       1  UNL1       -0.1659
     39 F         131.7430  141.4099  155.6487 F       1  UNL1       -0.1659
@<TRIPOS>BOND
     1     1     2    2
     2     2    23    1
     3    23    24    1
     4    24    26    1
     5    26    27   ar
     6    27    28   ar
     7    28    29   ar
     8    29    30   ar
     9    30    31   ar
    10    31    32   ar
    11    32    33   ar
    12    33    36    1
    13    36    37    1
    14    36    38    1
    15    36    39    1
    16    33    34   ar
    17    34    35   ar
    18     2     3   am
    19     3     5    1
    20     5     6    1
    21     6     7    1
    22     9     7    1
    23     9    10    1
    24    10    11    1
    25    11    12    1
    26    12    13    1
    27    12    17    1
    28    17    18   ar
    29    18    19   ar
    30    19    20   ar
    31    20    21   ar
    32    21    22   ar
    33    12    14    1
    34    14    15    1
    35     7     8    1
    36    35    26   ar
    37     8     5    1
    38    35    30   ar
    39    15     9    1
    40    22    17   ar
    41    24    25    1
    42     3     4    1
    43    13    16    1
@<TRIPOS>MOLECULE
*****
 39 43 0 0 0
SMALL
GASTEIGER

@<TRIPOS>ATOM
      1 O         143.0610  144.6499  164.2519 O.2     1  UNL1       -0.2733
      2 C         143.0248  143.1702  164.4955 C.2     1  UNL1        0.2425
      3 N         142.4575  142.2523  163.4536 N.am    1  UNL1       -0.3018
      4 H         142.4337  141.2812  163.6134 H       1  UNL1        0.1495
      5 C         141.9266  142.8141  162.1680 C.3     1  UNL1        0.1035
      6 C         142.4998  143.0711  160.8060 C.3     1  UNL1        0.0933
      7 N         141.1756  143.6085  160.3501 N.3     1  UNL1       -0.2711
      8 C         140.6024  143.3515  161.7122 C.3     1  UNL1        0.0933
      9 C         140.6447  144.1703  159.0646 C.3     1  UNL1        0.0578
     10 C         139.7828  143.3238  158.1756 C.3     1  UNL1        0.0187
     11 C         139.2517  143.8855  156.8900 C.3     1  UNL1        0.0325
     12 C         139.5827  145.2938  156.4936 C.3     1  UNL1        0.1070
     13 O         138.7332  144.8873  155.3261 O.3     1  UNL1       -0.3827
     14 C         140.4446  146.1404  157.3827 C.3     1  UNL1        0.0325
     15 C         140.9756  145.5786  158.6682 C.3     1  UNL1        0.0187
     16 H         138.4366  143.9715  155.4453 H       1  UNL1        0.2107
     17 C         139.6186  146.5609  155.6917 C.ar    1  UNL1        0.0017
     18 C         140.4233  146.6259  154.4275 C.ar    1  UNL1       -0.0020
     19 C         140.4593  147.8929  153.6255 C.ar    1  UNL1       -0.0002
     20 C         139.6905  149.0952  154.0878 C.ar    1  UNL1       -0.0000
     21 C         138.8858  149.0302  155.3521 C.ar    1  UNL1       -0.0002
     22 C         138.8499  147.7632  156.1540 C.ar    1  UNL1       -0.0020
     23 C         143.5557  142.6085  165.7810 C.3     1  UNL1        0.1747
     24 N         143.1629  141.2274  166.2149 N.pl3   1  UNL1       -0.3106
     25 H         143.6917  140.4504  165.9220 H       1  UNL1        0.1486
     26 C         141.9644  141.0302  167.0952 C.ar    1  UNL1        0.1320
     27 N         141.9062  141.6889  168.4415 N.ar    1  UNL1       -0.2092
     28 C         140.7077  141.4917  169.3217 C.ar    1  UNL1        0.2000
     29 N         139.5674  140.6359  168.8555 N.ar    1  UNL1       -0.2239
     30 C         139.6257  139.9772  167.5091 C.ar    1  UNL1        0.0857
     31 C         138.4854  139.1214  167.0429 C.ar    1  UNL1        0.0192
     32 C         138.5436  138.4627  165.6965 C.ar    1  UNL1        0.0054
     33 C         139.7421  138.6599  164.8163 C.ar    1  UNL1        0.0716
     34 C         140.8824  139.5157  165.2825 C.ar    1  UNL1        0.0081
     35 C         140.8241  140.1744  166.6290 C.ar    1  UNL1        0.0491
     36 C         139.8004  138.0012  163.4699 C.3     1  UNL1        0.4186
     37 F         139.8586  137.3426  162.1235 F       1  UNL1       -0.1659
     38 F         138.4747  137.3499  163.7313 F       1  UNL1       -0.1659
     39 F         141.1260  138.6526  163.2086 F       1  UNL1       -0.1659
@<TRIPOS>BOND
     1     1     2    2
     2     2    23    1
     3    23    24    1
     4    24    26    1
     5    26    27   ar
     6    27    28   ar
     7    28    29   ar
     8    29    30   ar
     9    30    31   ar
    10    31    32   ar
    11    32    33   ar
    12    33    36    1
    13    36    37    1
    14    36    38    1
    15    36    39    1
    16    33    34   ar
    17    34    35   ar
    18     2     3   am
    19     3     5    1
    20     5     6    1
    21     6     7    1
    22     9     7    1
    23     9    10    1
    24    10    11    1
    25    11    12    1
    26    12    13    1
    27    12    17    1
    28    17    18   ar
    29    18    19   ar
    30    19    20   ar
    31    20    21   ar
    32    21    22   ar
    33    12    14    1
    34    14    15    1
    35     7     8    1
    36    35    26   ar
    37     8     5    1
    38    35    30   ar
    39    15     9    1
    40    22    17   ar
    41    24    25    1
    42     3     4    1
    43    13    16    1
