@<TRIPOS>MOLECULE
*****
 48 55 0 0 0
SMALL
GASTEIGER

@<TRIPOS>ATOM
      1 C         140.5214  144.7294  157.8569 C.ar    1  UNL1        0.1384
      2 C         141.3447  144.2797  156.6865 C.ar    1  UNL1        0.0369
      3 C         141.7795  142.8479  156.5813 C.ar    1  UNL1        0.0042
      4 C         141.3909  141.8659  157.6464 C.ar    1  UNL1        0.0117
      5 C         140.5676  142.3155  158.8168 C.ar    1  UNL1       -0.0176
      6 C         140.1328  143.7473  158.9221 C.ar    1  UNL1        0.0327
      7 C         140.0751  141.5063  159.9799 C.3     1  UNL1        0.0330
      8 C         139.4897  140.8880  161.2148 C.3     1  UNL1        0.0157
      9 C         140.2843  140.0476  160.2597 C.3     1  UNL1        0.0938
     10 C         141.0377  139.0378  159.4456 C.3     1  UNL1        0.1148
     11 N         141.7680  139.2373  158.1506 N.ar    1  UNL1       -0.3269
     12 C         141.9251  140.4959  157.3499 C.ar    1  UNL1        0.0555
     13 C         142.7428  140.1730  156.1345 C.ar    1  UNL1       -0.0053
     14 C         143.0909  138.7148  156.1841 C.ar    1  UNL1        0.0132
     15 C         143.8787  137.8388  155.2556 C.ar    1  UNL1        0.0013
     16 C         144.0640  136.3846  155.5732 C.ar    1  UNL1        0.0046
     17 C         143.4615  135.8063  156.8192 C.ar    1  UNL1        0.0563
     18 C         142.6737  136.6822  157.7477 C.ar    1  UNL1        0.0217
     19 C         142.4884  138.1366  157.4302 C.ar    1  UNL1        0.0597
     20 C         140.0083  138.9145  161.2032 C.2     1  UNL1        0.2268
     21 O         138.8102  138.0372  160.9916 O.2     1  UNL1       -0.2748
     22 N         140.9306  138.6589  162.3583 N.am    1  UNL1       -0.2800
     23 C         142.1611  139.4476  162.6953 C.3     1  UNL1        0.0913
     24 C         142.7752  138.8457  163.9245 C.3     1  UNL1        0.0230
     25 C         141.9240  137.6850  164.3470 C.3     1  UNL1        0.0230
     26 C         140.7841  137.5696  163.3790 C.3     1  UNL1        0.0913
     27 C         139.7648  137.6929  162.2722 C.3     1  UNL1        0.0922
     28 N         140.0408  138.8260  161.3287 N.3     1  UNL1       -0.2687
     29 C         139.1186  139.0817  160.1736 C.3     1  UNL1        0.0897
     30 C         141.2389  139.7033  161.5403 C.3     1  UNL1        0.0922
     31 C         143.1422  141.1387  155.0585 C.3     1  UNL1        0.0238
     32 C         142.2561  141.3402  153.8649 C.3     1  UNL1        0.0044
     33 C         142.6555  142.3057  152.7889 C.3     1  UNL1        0.0003
     34 C         143.9409  143.0700  152.9063 C.3     1  UNL1        0.0000
     35 C         144.8269  142.8685  154.0997 C.3     1  UNL1        0.0003
     36 C         144.4275  141.9028  155.1758 C.3     1  UNL1        0.0044
     37 C         143.6468  134.3521  157.1368 C.2     1  UNL1        0.2640
     38 O         143.8810  133.9176  158.5532 O.2     1  UNL1       -0.2686
     39 N         143.5978  133.3322  156.0379 N.am    1  UNL1       -0.1853
     40 H         143.4441  133.6174  155.1082 H       1  UNL1        0.1765
     41 S         143.7831  131.8780  156.3553 S.O2    1  UNL1        0.0545
     42 O         142.3071  131.7402  156.5852 O.2     1  UNL1       -0.1545
     43 O         145.2589  132.0157  156.1255 O.2     1  UNL1       -0.1545
     44 C         143.9683  130.4237  156.6728 C.3     1  UNL1        0.1490
     45 C         144.5500  130.0124  157.9928 C.3     1  UNL1        0.0273
     46 C         143.5717  129.3809  155.6703 C.3     1  UNL1        0.0273
     47 C         139.5822  146.8829  156.7479 C.3     1  UNL1        0.2525
     48 O         140.0866  146.1611  157.9622 O.3     1  UNL1       -0.4714
@<TRIPOS>BOND
     1    47    48    1
     2    48     1    1
     3     1     2   ar
     4     2     3   ar
     5     3     4   ar
     6     4     5   ar
     7     5     6   ar
     8     5     7    1
     9     7     8    1
    10     8     9    1
    11     9    20    1
    12    20    21    2
    13    20    22   am
    14    22    23    1
    15    23    24    1
    16    24    25    1
    17    25    26    1
    18    26    27    1
    19    27    28    1
    20    28    29    1
    21    28    30    1
    22     9    10    1
    23    10    11    1
    24    11    12   ar
    25    12    13   ar
    26    13    31    1
    27    31    32    1
    28    32    33    1
    29    33    34    1
    30    34    35    1
    31    35    36    1
    32    13    14   ar
    33    14    15   ar
    34    15    16   ar
    35    16    17   ar
    36    17    37    1
    37    37    38    2
    38    37    39   am
    39    39    41    1
    40    41    42    2
    41    41    43    2
    42    41    44    1
    43    44    45    1
    44    44    46    1
    45    17    18   ar
    46    18    19   ar
    47     6     1   ar
    48     9     7    1
    49    26    22    1
    50    19    11   ar
    51    12     4    1
    52    36    31    1
    53    19    14   ar
    54    30    23    1
    55    39    40    1
@<TRIPOS>MOLECULE
*****
 48 55 0 0 0
SMALL
GASTEIGER

@<TRIPOS>ATOM
      1 C         140.4801  144.4764  157.5643 C.ar    1  UNL1        0.1384
      2 C         140.4416  143.7644  156.2446 C.ar    1  UNL1        0.0369
      3 C         140.8576  142.3259  156.1561 C.ar    1  UNL1        0.0042
      4 C         141.3121  141.5995  157.3871 C.ar    1  UNL1        0.0117
      5 C         141.3506  142.3114  158.7068 C.ar    1  UNL1       -0.0176
      6 C         140.9346  143.7499  158.7955 C.ar    1  UNL1        0.0327
      7 C         141.7676  141.7781  160.0454 C.3     1  UNL1        0.0330
      8 C         142.1376  141.4498  161.4615 C.3     1  UNL1        0.0157
      9 C         142.2490  140.4011  160.3949 C.3     1  UNL1        0.0938
     10 C         142.4323  139.2173  159.4920 C.3     1  UNL1        0.1148
     11 N         142.1796  139.1181  158.0168 N.ar    1  UNL1       -0.3269
     12 C         141.6810  140.1783  157.0800 C.ar    1  UNL1        0.0555
     13 C         141.5976  139.5813  155.7065 C.ar    1  UNL1       -0.0053
     14 C         142.0446  138.1522  155.7944 C.ar    1  UNL1        0.0132
     15 C         142.1706  137.0744  154.7587 C.ar    1  UNL1        0.0013
     16 C         142.6562  135.7105  155.1509 C.ar    1  UNL1        0.0046
     17 C         143.0159  135.4243  156.5787 C.ar    1  UNL1        0.0563
     18 C         142.8899  136.5020  157.6144 C.ar    1  UNL1        0.0217
     19 C         142.4043  137.8660  157.2223 C.ar    1  UNL1        0.0597
     20 C         142.7309  139.4977  161.4911 C.2     1  UNL1        0.2268
     21 O         144.1943  139.4218  161.8115 O.2     1  UNL1       -0.2748
     22 N         141.7494  138.6701  162.2668 N.am    1  UNL1       -0.2800
     23 C         140.2638  138.6411  162.0610 C.3     1  UNL1        0.0913
     24 C         139.6775  137.6792  163.0516 C.3     1  UNL1        0.0230
     25 C         140.8007  137.1139  163.8695 C.3     1  UNL1        0.0230
     26 C         142.0811  137.7263  163.3844 C.3     1  UNL1        0.0913
     27 C         143.1907  138.4894  162.7020 C.3     1  UNL1        0.0922
     28 N         142.7088  139.3928  161.6058 N.3     1  UNL1       -0.2687
     29 C         143.6903  140.2204  160.8300 C.3     1  UNL1        0.0897
     30 C         141.2454  139.4686  161.2853 C.3     1  UNL1        0.0922
     31 C         141.1464  140.2891  154.4634 C.3     1  UNL1        0.0238
     32 C         142.1432  141.0174  153.6112 C.3     1  UNL1        0.0044
     33 C         141.6921  141.7251  152.3682 C.3     1  UNL1        0.0003
     34 C         140.2441  141.7047  151.9770 C.3     1  UNL1        0.0000
     35 C         139.2473  140.9765  152.8291 C.3     1  UNL1        0.0003
     36 C         139.6985  140.2687  154.0723 C.3     1  UNL1        0.0044
     37 C         143.5016  134.0604  156.9709 C.2     1  UNL1        0.2640
     38 O         143.9988  133.8132  158.3643 O.2     1  UNL1       -0.2686
     39 N         143.4901  132.9435  155.9696 N.am    1  UNL1       -0.1853
     40 H         143.1638  133.1057  155.0550 H       1  UNL1        0.1765
     41 S         143.9757  131.5795  156.3617 S.O2    1  UNL1        0.0545
     42 O         142.5607  131.1464  156.6072 O.2     1  UNL1       -0.1545
     43 O         145.3907  132.0127  156.1162 O.2     1  UNL1       -0.1545
     44 C         144.4613  130.2156  156.7538 C.3     1  UNL1        0.1490
     45 C         144.8511  129.2256  155.6964 C.3     1  UNL1        0.0273
     46 C         144.5570  129.8416  158.2032 C.3     1  UNL1        0.0273
     47 C         139.6066  146.6403  156.4224 C.3     1  UNL1        0.2525
     48 O         140.0641  145.9147  157.6529 O.3     1  UNL1       -0.4714
@<TRIPOS>BOND
     1    47    48    1
     2    48     1    1
     3     1     2   ar
     4     2     3   ar
     5     3     4   ar
     6     4     5   ar
     7     5     6   ar
     8     5     7    1
     9     7     8    1
    10     8     9    1
    11     9    20    1
    12    20    21    2
    13    20    22   am
    14    22    23    1
    15    23    24    1
    16    24    25    1
    17    25    26    1
    18    26    27    1
    19    27    28    1
    20    28    29    1
    21    28    30    1
    22     9    10    1
    23    10    11    1
    24    11    12   ar
    25    12    13   ar
    26    13    31    1
    27    31    32    1
    28    32    33    1
    29    33    34    1
    30    34    35    1
    31    35    36    1
    32    13    14   ar
    33    14    15   ar
    34    15    16   ar
    35    16    17   ar
    36    17    37    1
    37    37    38    2
    38    37    39   am
    39    39    41    1
    40    41    42    2
    41    41    43    2
    42    41    44    1
    43    44    45    1
    44    44    46    1
    45    17    18   ar
    46    18    19   ar
    47     6     1   ar
    48     9     7    1
    49    26    22    1
    50    19    11   ar
    51    12     4    1
    52    36    31    1
    53    19    14   ar
    54    30    23    1
    55    39    40    1
@<TRIPOS>MOLECULE
*****
 48 55 0 0 0
SMALL
GASTEIGER

@<TRIPOS>ATOM
      1 C         139.2981  139.8485  162.1402 C.ar    1  UNL1        0.1384
      2 C         140.3526  140.8588  162.4829 C.ar    1  UNL1        0.0369
      3 C         141.4675  141.1358  161.5184 C.ar    1  UNL1        0.0042
      4 C         141.5279  140.4027  160.2113 C.ar    1  UNL1        0.0117
      5 C         140.4735  139.3924  159.8685 C.ar    1  UNL1       -0.0176
      6 C         139.3585  139.1153  160.8330 C.ar    1  UNL1        0.0327
      7 C         140.3465  138.5566  158.6294 C.3     1  UNL1        0.0330
      8 C         140.0351  137.6369  157.4861 C.3     1  UNL1        0.0157
      9 C         141.2427  138.5247  157.4270 C.3     1  UNL1        0.0938
     10 C         142.4872  139.3207  157.1667 C.3     1  UNL1        0.1148
     11 N         143.1429  140.3451  158.0445 N.ar    1  UNL1       -0.3269
     12 C         142.7159  140.8267  159.3995 C.ar    1  UNL1        0.0555
     13 C         143.7053  141.8564  159.8584 C.ar    1  UNL1       -0.0053
     14 C         144.7437  142.0113  158.7871 C.ar    1  UNL1        0.0132
     15 C         145.9610  142.8823  158.6875 C.ar    1  UNL1        0.0013
     16 C         146.8305  142.8191  157.4669 C.ar    1  UNL1        0.0046
     17 C         146.4829  141.8851  156.3459 C.ar    1  UNL1        0.0563
     18 C         145.2657  141.0142  156.4454 C.ar    1  UNL1        0.0217
     19 C         144.3960  141.0773  157.6661 C.ar    1  UNL1        0.0597
     20 C         141.4892  137.9104  156.0808 C.2     1  UNL1        0.2268
     21 O         140.9000  138.5364  154.8516 O.2     1  UNL1       -0.2748
     22 N         142.3247  136.6702  155.9640 N.am    1  UNL1       -0.2800
     23 C         142.9759  135.9358  157.0983 C.3     1  UNL1        0.0913
     24 C         143.7095  134.7583  156.5276 C.3     1  UNL1        0.0230
     25 C         143.5116  134.7651  155.0407 C.3     1  UNL1        0.0230
     26 C         142.6558  135.9467  154.6924 C.3     1  UNL1        0.0913
     27 C         141.7977  137.1877  154.6397 C.3     1  UNL1        0.0922
     28 N         141.5512  137.8020  155.9858 N.3     1  UNL1       -0.2687
     29 C         140.7156  139.0422  156.1028 C.3     1  UNL1        0.0897
     30 C         142.1404  137.1760  157.2151 C.3     1  UNL1        0.0922
     31 C         143.6637  142.6007  161.1600 C.3     1  UNL1        0.0238
     32 C         144.5175  142.1512  162.3086 C.3     1  UNL1        0.0044
     33 C         144.4759  142.8954  163.6102 C.3     1  UNL1        0.0003
     34 C         143.5805  144.0891  163.7635 C.3     1  UNL1        0.0000
     35 C         142.7267  144.5385  162.6150 C.3     1  UNL1        0.0003
     36 C         142.7683  143.7943  161.3133 C.3     1  UNL1        0.0044
     37 C         147.3524  141.8219  155.1253 C.2     1  UNL1        0.2640
     38 O         146.7992  141.2885  153.8371 O.2     1  UNL1       -0.2686
     39 N         148.7752  142.2922  155.1928 N.am    1  UNL1       -0.1853
     40 H         149.1383  142.6423  156.0383 H       1  UNL1        0.1765
     41 S         149.6448  142.2291  153.9723 S.O2    1  UNL1        0.0545
     42 O         148.9734  143.4563  153.4306 O.2     1  UNL1       -0.1545
     43 O         150.3161  141.0020  154.5139 O.2     1  UNL1       -0.1545
     44 C         150.5144  142.1661  152.7517 C.3     1  UNL1        0.1490
     45 C         150.6841  140.8689  152.0179 C.3     1  UNL1        0.0273
     46 C         151.2142  143.4002  152.2649 C.3     1  UNL1        0.0273
     47 C         138.0996  140.3343  164.3935 C.3     1  UNL1        0.2525
     48 O         138.1833  139.5715  163.1047 O.3     1  UNL1       -0.4714
@<TRIPOS>BOND
     1    47    48    1
     2    48     1    1
     3     1     2   ar
     4     2     3   ar
     5     3     4   ar
     6     4     5   ar
     7     5     6   ar
     8     5     7    1
     9     7     8    1
    10     8     9    1
    11     9    20    1
    12    20    21    2
    13    20    22   am
    14    22    23    1
    15    23    24    1
    16    24    25    1
    17    25    26    1
    18    26    27    1
    19    27    28    1
    20    28    29    1
    21    28    30    1
    22     9    10    1
    23    10    11    1
    24    11    12   ar
    25    12    13   ar
    26    13    31    1
    27    31    32    1
    28    32    33    1
    29    33    34    1
    30    34    35    1
    31    35    36    1
    32    13    14   ar
    33    14    15   ar
    34    15    16   ar
    35    16    17   ar
    36    17    37    1
    37    37    38    2
    38    37    39   am
    39    39    41    1
    40    41    42    2
    41    41    43    2
    42    41    44    1
    43    44    45    1
    44    44    46    1
    45    17    18   ar
    46    18    19   ar
    47     6     1   ar
    48     9     7    1
    49    26    22    1
    50    19    11   ar
    51    12     4    1
    52    36    31    1
    53    19    14   ar
    54    30    23    1
    55    39    40    1
@<TRIPOS>MOLECULE
*****
 48 55 0 0 0
SMALL
GASTEIGER

@<TRIPOS>ATOM
      1 C         141.7267  142.4039  155.0245 C.ar    1  UNL1        0.1384
      2 C         141.6483  140.9341  155.3137 C.ar    1  UNL1        0.0369
      3 C         141.4300  140.4568  156.7189 C.ar    1  UNL1        0.0042
      4 C         141.2901  141.4492  157.8348 C.ar    1  UNL1        0.0117
      5 C         141.3684  142.9190  157.5458 C.ar    1  UNL1       -0.0176
      6 C         141.5867  143.3964  156.1405 C.ar    1  UNL1        0.0327
      7 C         141.2556  144.0680  158.5035 C.3     1  UNL1        0.0330
      8 C         141.1723  145.3476  159.2815 C.3     1  UNL1        0.0157
      9 C         141.0365  144.0308  159.9869 C.3     1  UNL1        0.0938
     10 C         140.8762  142.8356  160.8790 C.3     1  UNL1        0.1148
     11 N         140.8954  141.3823  160.5080 N.ar    1  UNL1       -0.3269
     12 C         141.0796  140.7654  159.1532 C.ar    1  UNL1        0.0555
     13 C         141.0201  139.2749  159.3107 C.ar    1  UNL1       -0.0053
     14 C         140.7991  138.9707  160.7628 C.ar    1  UNL1        0.0132
     15 C         140.6582  137.6759  161.5070 C.ar    1  UNL1        0.0013
     16 C         140.4401  137.6836  162.9910 C.ar    1  UNL1        0.0046
     17 C         140.3630  138.9862  163.7310 C.ar    1  UNL1        0.0563
     18 C         140.5040  140.2809  162.9869 C.ar    1  UNL1        0.0217
     19 C         140.7221  140.2732  161.5028 C.ar    1  UNL1        0.0597
     20 C         140.8726  144.8447  161.2363 C.2     1  UNL1        0.2268
     21 O         139.5987  145.5986  161.4785 O.2     1  UNL1       -0.2748
     22 N         141.9827  144.9045  162.2433 N.am    1  UNL1       -0.2800
     23 C         143.3067  144.2074  162.1386 C.3     1  UNL1        0.0913
     24 C         144.1059  144.5441  163.3626 C.3     1  UNL1        0.0230
     25 C         143.2757  145.4492  164.2237 C.3     1  UNL1        0.0230
     26 C         141.9635  145.6720  163.5320 C.3     1  UNL1        0.0913
     27 C         140.7588  145.7154  162.6231 C.3     1  UNL1        0.0922
     28 N         140.9227  144.9015  161.3738 N.3     1  UNL1       -0.2687
     29 C         139.8127  144.8416  160.3666 C.3     1  UNL1        0.0897
     30 C         142.1966  144.1476  161.1315 C.3     1  UNL1        0.0922
     31 C         141.1575  138.2657  158.2096 C.3     1  UNL1        0.0238
     32 C         142.4797  137.6023  157.9608 C.3     1  UNL1        0.0044
     33 C         142.6171  136.5932  156.8597 C.3     1  UNL1        0.0003
     34 C         141.4323  136.2473  156.0072 C.3     1  UNL1        0.0000
     35 C         140.1102  136.9106  156.2559 C.3     1  UNL1        0.0003
     36 C         139.9727  137.9198  157.3571 C.3     1  UNL1        0.0044
     37 C         140.1450  138.9940  165.2150 C.2     1  UNL1        0.2640
     38 O         139.1630  138.0438  165.8338 O.2     1  UNL1       -0.2686
     39 N         140.9089  139.9519  166.0803 N.am    1  UNL1       -0.1853
     40 H         141.5534  140.5756  165.6742 H       1  UNL1        0.1765
     41 S         140.6909  139.9598  167.5643 S.O2    1  UNL1        0.0545
     42 O         141.9610  139.1847  167.7549 O.2     1  UNL1       -0.1545
     43 O         139.4209  140.7349  167.3738 O.2     1  UNL1       -0.1545
     44 C         140.4730  139.9676  169.0484 C.3     1  UNL1        0.1490
     45 C         141.5857  139.5687  169.9719 C.3     1  UNL1        0.0273
     46 C         139.1425  140.3743  169.6089 C.3     1  UNL1        0.0273
     47 C         141.4259  144.2227  153.1938 C.3     1  UNL1        0.2525
     48 O         141.9449  142.8812  153.6194 O.3     1  UNL1       -0.4714
@<TRIPOS>BOND
     1    47    48    1
     2    48     1    1
     3     1     2   ar
     4     2     3   ar
     5     3     4   ar
     6     4     5   ar
     7     5     6   ar
     8     5     7    1
     9     7     8    1
    10     8     9    1
    11     9    20    1
    12    20    21    2
    13    20    22   am
    14    22    23    1
    15    23    24    1
    16    24    25    1
    17    25    26    1
    18    26    27    1
    19    27    28    1
    20    28    29    1
    21    28    30    1
    22     9    10    1
    23    10    11    1
    24    11    12   ar
    25    12    13   ar
    26    13    31    1
    27    31    32    1
    28    32    33    1
    29    33    34    1
    30    34    35    1
    31    35    36    1
    32    13    14   ar
    33    14    15   ar
    34    15    16   ar
    35    16    17   ar
    36    17    37    1
    37    37    38    2
    38    37    39   am
    39    39    41    1
    40    41    42    2
    41    41    43    2
    42    41    44    1
    43    44    45    1
    44    44    46    1
    45    17    18   ar
    46    18    19   ar
    47     6     1   ar
    48     9     7    1
    49    26    22    1
    50    19    11   ar
    51    12     4    1
    52    36    31    1
    53    19    14   ar
    54    30    23    1
    55    39    40    1
@<TRIPOS>MOLECULE
*****
 48 55 0 0 0
SMALL
GASTEIGER

@<TRIPOS>ATOM
      1 C         140.4579  143.7488  163.5189 C.ar    1  UNL1        0.1384
      2 C         141.1365  142.4875  163.9646 C.ar    1  UNL1        0.0369
      3 C         141.4625  141.4177  162.9650 C.ar    1  UNL1        0.0042
      4 C         141.1100  141.6092  161.5197 C.ar    1  UNL1        0.0117
      5 C         140.4314  142.8704  161.0739 C.ar    1  UNL1       -0.0176
      6 C         140.1053  143.9403  162.0735 C.ar    1  UNL1        0.0327
      7 C         139.9963  143.2604  159.6924 C.3     1  UNL1        0.0330
      8 C         139.4885  143.8401  158.4055 C.3     1  UNL1        0.0157
      9 C         140.1324  142.4854  158.4153 C.3     1  UNL1        0.0938
     10 C         140.7372  141.1290  158.2045 C.3     1  UNL1        0.1148
     11 N         141.3552  140.2126  159.2185 N.ar    1  UNL1       -0.3269
     12 C         141.5211  140.4263  160.6939 C.ar    1  UNL1        0.0555
     13 C         142.1983  139.2156  161.2644 C.ar    1  UNL1       -0.0053
     14 C         142.4509  138.2536  160.1416 C.ar    1  UNL1        0.0132
     15 C         143.0882  136.8961  160.1071 C.ar    1  UNL1        0.0013
     16 C         143.2043  136.1548  158.8083 C.ar    1  UNL1        0.0046
     17 C         142.6832  136.7710  157.5439 C.ar    1  UNL1        0.0563
     18 C         142.0460  138.1285  157.5783 C.ar    1  UNL1        0.0217
     19 C         141.9298  138.8699  158.8772 C.ar    1  UNL1        0.0597
     20 C         139.8702  142.4742  156.9384 C.2     1  UNL1        0.2268
     21 O         140.9195  142.9673  155.9867 O.2     1  UNL1       -0.2748
     22 N         138.5588  141.9697  156.4134 N.am    1  UNL1       -0.2800
     23 C         137.4203  141.4482  157.2391 C.3     1  UNL1        0.0913
     24 C         136.3135  141.0544  156.3063 C.3     1  UNL1        0.0230
     25 C         136.7680  141.3327  154.9041 C.3     1  UNL1        0.0230
     26 C         138.1556  141.8984  154.9703 C.3     1  UNL1        0.0913
     27 C         139.5189  142.4345  155.3355 C.3     1  UNL1        0.0922
     28 N         139.7810  142.4458  156.8124 N.3     1  UNL1       -0.2687
     29 C         141.0925  142.9502  157.3376 C.3     1  UNL1        0.0897
     30 C         138.7318  141.9526  157.7642 C.3     1  UNL1        0.0922
     31 C         142.5595  139.0040  162.7048 C.3     1  UNL1        0.0238
     32 C         141.5857  138.3395  163.6324 C.3     1  UNL1        0.0044
     33 C         141.9468  138.1278  165.0727 C.3     1  UNL1        0.0003
     34 C         143.2818  138.5806  165.5856 C.3     1  UNL1        0.0000
     35 C         144.2555  139.2450  164.6581 C.3     1  UNL1        0.0003
     36 C         143.8943  139.4567  163.2177 C.3     1  UNL1        0.0044
     37 C         142.7993  136.0298  156.2450 C.2     1  UNL1        0.2640
     38 O         143.9598  136.2937  155.3320 O.2     1  UNL1       -0.2686
     39 N         141.7549  135.0246  155.8591 N.am    1  UNL1       -0.1853
     40 H         140.9932  134.8514  156.4583 H       1  UNL1        0.1765
     41 S         141.8709  134.2833  154.5603 S.O2    1  UNL1        0.0545
     42 O         141.0624  135.3483  153.8803 O.2     1  UNL1       -0.1545
     43 O         142.6794  133.2184  155.2402 O.2     1  UNL1       -0.1545
     44 C         141.9869  133.5421  153.2614 C.3     1  UNL1        0.1490
     45 C         142.5208  132.1405  153.2428 C.3     1  UNL1        0.0273
     46 C         141.5690  134.2025  151.9812 C.3     1  UNL1        0.0273
     47 C         138.8189  144.7925  165.2435 C.3     1  UNL1        0.2525
     48 O         140.1318  144.8185  164.5185 O.3     1  UNL1       -0.4714
@<TRIPOS>BOND
     1    47    48    1
     2    48     1    1
     3     1     2   ar
     4     2     3   ar
     5     3     4   ar
     6     4     5   ar
     7     5     6   ar
     8     5     7    1
     9     7     8    1
    10     8     9    1
    11     9    20    1
    12    20    21    2
    13    20    22   am
    14    22    23    1
    15    23    24    1
    16    24    25    1
    17    25    26    1
    18    26    27    1
    19    27    28    1
    20    28    29    1
    21    28    30    1
    22     9    10    1
    23    10    11    1
    24    11    12   ar
    25    12    13   ar
    26    13    31    1
    27    31    32    1
    28    32    33    1
    29    33    34    1
    30    34    35    1
    31    35    36    1
    32    13    14   ar
    33    14    15   ar
    34    15    16   ar
    35    16    17   ar
    36    17    37    1
    37    37    38    2
    38    37    39   am
    39    39    41    1
    40    41    42    2
    41    41    43    2
    42    41    44    1
    43    44    45    1
    44    44    46    1
    45    17    18   ar
    46    18    19   ar
    47     6     1   ar
    48     9     7    1
    49    26    22    1
    50    19    11   ar
    51    12     4    1
    52    36    31    1
    53    19    14   ar
    54    30    23    1
    55    39    40    1
@<TRIPOS>MOLECULE
*****
 48 55 0 0 0
SMALL
GASTEIGER

@<TRIPOS>ATOM
      1 C         140.5588  141.5339  153.9192 C.ar    1  UNL1        0.1384
      2 C         141.1811  140.2160  154.2741 C.ar    1  UNL1        0.0369
      3 C         141.5750  139.9305  155.6931 C.ar    1  UNL1        0.0042
      4 C         141.3464  140.9627  156.7571 C.ar    1  UNL1        0.0117
      5 C         140.7241  142.2806  156.4023 C.ar    1  UNL1       -0.0176
      6 C         140.3302  142.5662  154.9833 C.ar    1  UNL1        0.0327
      7 C         140.4106  143.4393  157.3017 C.3     1  UNL1        0.0330
      8 C         140.0193  144.6986  158.0166 C.3     1  UNL1        0.0157
      9 C         140.6421  143.5664  158.7783 C.3     1  UNL1        0.0938
     10 C         141.2443  142.5661  159.7200 C.3     1  UNL1        0.1148
     11 N         141.7636  141.1917  159.4179 N.ar    1  UNL1       -0.3269
     12 C         141.8091  140.4781  158.0992 C.ar    1  UNL1        0.0555
     13 C         142.4203  139.1270  158.3241 C.ar    1  UNL1       -0.0053
     14 C         142.7527  139.0055  159.7818 C.ar    1  UNL1        0.0132
     15 C         143.3725  137.8976  160.5810 C.ar    1  UNL1        0.0013
     16 C         143.5864  138.0660  162.0561 C.ar    1  UNL1        0.0046
     17 C         143.1805  139.3420  162.7320 C.ar    1  UNL1        0.0563
     18 C         142.5607  140.4498  161.9328 C.ar    1  UNL1        0.0217
     19 C         142.3468  140.2816  160.4577 C.ar    1  UNL1        0.0597
     20 C         140.5036  144.4492  159.9831 C.2     1  UNL1        0.2268
     21 O         141.3938  145.6459  160.1424 O.2     1  UNL1       -0.2748
     22 N         139.4749  144.1351  161.0286 N.am    1  UNL1       -0.2800
     23 C         138.5191  142.9793  161.0060 C.3     1  UNL1        0.0913
     24 C         137.6749  143.0517  162.2438 C.3     1  UNL1        0.0230
     25 C         138.1089  144.2524  163.0313 C.3     1  UNL1        0.0230
     26 C         139.2213  144.9219  162.2803 C.3     1  UNL1        0.0913
     27 C         140.2995  145.3729  161.3246 C.3     1  UNL1        0.0922
     28 N         140.4380  144.4901  160.1198 N.3     1  UNL1       -0.2687
     29 C         141.4668  144.8040  159.0742 C.3     1  UNL1        0.0897
     30 C         139.5479  143.2933  159.9605 C.3     1  UNL1        0.0922
     31 C         142.6576  138.0810  157.2756 C.3     1  UNL1        0.0238
     32 C         143.8708  138.1614  156.3969 C.3     1  UNL1        0.0044
     33 C         144.1081  137.1155  155.3485 C.3     1  UNL1        0.0003
     34 C         143.1324  135.9889  155.1784 C.3     1  UNL1        0.0000
     35 C         141.9193  135.9084  156.0570 C.3     1  UNL1        0.0003
     36 C         141.6820  136.9544  157.1056 C.3     1  UNL1        0.0044
     37 C         143.3944  139.5104  164.2071 C.2     1  UNL1        0.2640
     38 O         144.6249  138.9486  164.8554 O.2     1  UNL1       -0.2686
     39 N         142.3778  140.2405  165.0339 N.am    1  UNL1       -0.1853
     40 H         141.5702  140.6091  164.6083 H       1  UNL1        0.1765
     41 S         142.5916  140.4088  166.5090 S.O2    1  UNL1        0.0545
     42 O         141.9009  139.1008  166.7583 O.2     1  UNL1       -0.1545
     43 O         143.2823  141.7168  166.2596 O.2     1  UNL1       -0.1545
     44 C         142.8053  140.5771  167.9840 C.3     1  UNL1        0.1490
     45 C         142.6383  139.4047  168.9047 C.3     1  UNL1        0.0273
     46 C         143.1861  141.9178  168.5385 C.3     1  UNL1        0.0273
     47 C         138.7307  141.6923  152.0800 C.3     1  UNL1        0.2525
     48 O         140.1650  141.8194  152.5004 O.3     1  UNL1       -0.4714
@<TRIPOS>BOND
     1    47    48    1
     2    48     1    1
     3     1     2   ar
     4     2     3   ar
     5     3     4   ar
     6     4     5   ar
     7     5     6   ar
     8     5     7    1
     9     7     8    1
    10     8     9    1
    11     9    20    1
    12    20    21    2
    13    20    22   am
    14    22    23    1
    15    23    24    1
    16    24    25    1
    17    25    26    1
    18    26    27    1
    19    27    28    1
    20    28    29    1
    21    28    30    1
    22     9    10    1
    23    10    11    1
    24    11    12   ar
    25    12    13   ar
    26    13    31    1
    27    31    32    1
    28    32    33    1
    29    33    34    1
    30    34    35    1
    31    35    36    1
    32    13    14   ar
    33    14    15   ar
    34    15    16   ar
    35    16    17   ar
    36    17    37    1
    37    37    38    2
    38    37    39   am
    39    39    41    1
    40    41    42    2
    41    41    43    2
    42    41    44    1
    43    44    45    1
    44    44    46    1
    45    17    18   ar
    46    18    19   ar
    47     6     1   ar
    48     9     7    1
    49    26    22    1
    50    19    11   ar
    51    12     4    1
    52    36    31    1
    53    19    14   ar
    54    30    23    1
    55    39    40    1
@<TRIPOS>MOLECULE
*****
 48 55 0 0 0
SMALL
GASTEIGER

@<TRIPOS>ATOM
      1 C         139.9647  142.9219  155.9037 C.ar    1  UNL1        0.1384
      2 C         140.2835  141.4604  156.0157 C.ar    1  UNL1        0.0369
      3 C         140.5923  140.8606  157.3555 C.ar    1  UNL1        0.0042
      4 C         140.5822  141.7222  158.5832 C.ar    1  UNL1        0.0117
      5 C         140.2634  143.1837  158.4713 C.ar    1  UNL1       -0.0176
      6 C         139.9546  143.7835  157.1316 C.ar    1  UNL1        0.0327
      7 C         140.1994  144.2131  159.5605 C.3     1  UNL1        0.0330
      8 C         140.0830  145.3872  160.4867 C.3     1  UNL1        0.0157
      9 C         140.4385  144.0353  161.0306 C.3     1  UNL1        0.0938
     10 C         140.8005  142.7841  161.7746 C.3     1  UNL1        0.1148
     11 N         141.0130  141.4018  161.2324 N.ar    1  UNL1       -0.3269
     12 C         140.9158  140.9292  159.8120 C.ar    1  UNL1        0.0555
     13 C         141.2178  139.4602  159.7906 C.ar    1  UNL1       -0.0053
     14 C         141.5017  139.0248  161.1977 C.ar    1  UNL1        0.0132
     15 C         141.8592  137.6906  161.7828 C.ar    1  UNL1        0.0013
     16 C         142.0899  137.5565  163.2588 C.ar    1  UNL1        0.0046
     17 C         141.9633  138.7565  164.1498 C.ar    1  UNL1        0.0563
     18 C         141.6059  140.0907  163.5648 C.ar    1  UNL1        0.0217
     19 C         141.3751  140.2248  162.0887 C.ar    1  UNL1        0.0597
     20 C         140.4825  144.7100  162.3696 C.2     1  UNL1        0.2268
     21 O         141.6683  145.5465  162.7493 O.2     1  UNL1       -0.2748
     22 N         139.3408  144.5480  163.3289 N.am    1  UNL1       -0.2800
     23 C         138.0953  143.7471  163.0899 C.3     1  UNL1        0.0913
     24 C         137.2288  143.8628  164.3090 C.3     1  UNL1        0.0230
     25 C         137.9389  144.7353  165.3012 C.3     1  UNL1        0.0230
     26 C         139.2441  145.1587  164.6955 C.3     1  UNL1        0.0913
     27 C         140.4669  145.4201  163.8494 C.3     1  UNL1        0.0922
     28 N         140.4228  144.7455  162.5104 N.3     1  UNL1       -0.2687
     29 C         141.5645  144.9073  161.5510 C.3     1  UNL1        0.0897
     30 C         139.2370  143.9090  162.1307 C.3     1  UNL1        0.0922
     31 C         141.2333  138.5808  158.5756 C.3     1  UNL1        0.0238
     32 C         142.5401  138.1546  157.9748 C.3     1  UNL1        0.0044
     33 C         142.5557  137.2753  156.7598 C.3     1  UNL1        0.0003
     34 C         141.2645  136.8220  156.1454 C.3     1  UNL1        0.0000
     35 C         139.9578  137.2481  156.7461 C.3     1  UNL1        0.0003
     36 C         139.9422  138.1275  157.9612 C.3     1  UNL1        0.0044
     37 C         142.1941  138.6224  165.6259 C.2     1  UNL1        0.2640
     38 O         142.9958  137.4718  166.1582 O.2     1  UNL1       -0.2686
     39 N         141.6232  139.6390  166.5697 N.am    1  UNL1       -0.1853
     40 H         141.0970  140.3942  166.2203 H       1  UNL1        0.1765
     41 S         141.8539  139.5050  168.0457 S.O2    1  UNL1        0.0545
     42 O         143.3343  139.6004  167.8229 O.2     1  UNL1       -0.1545
     43 O         140.3737  139.4095  168.2686 O.2     1  UNL1       -0.1545
     44 C         142.0848  139.3710  169.5218 C.3     1  UNL1        0.1490
     45 C         142.9716  138.2808  170.0463 C.3     1  UNL1        0.0273
     46 C         141.4288  140.3271  170.4733 C.3     1  UNL1        0.0273
     47 C         139.3531  144.9863  154.4499 C.3     1  UNL1        0.2525
     48 O         139.6560  143.5216  154.5641 O.3     1  UNL1       -0.4714
@<TRIPOS>BOND
     1    47    48    1
     2    48     1    1
     3     1     2   ar
     4     2     3   ar
     5     3     4   ar
     6     4     5   ar
     7     5     6   ar
     8     5     7    1
     9     7     8    1
    10     8     9    1
    11     9    20    1
    12    20    21    2
    13    20    22   am
    14    22    23    1
    15    23    24    1
    16    24    25    1
    17    25    26    1
    18    26    27    1
    19    27    28    1
    20    28    29    1
    21    28    30    1
    22     9    10    1
    23    10    11    1
    24    11    12   ar
    25    12    13   ar
    26    13    31    1
    27    31    32    1
    28    32    33    1
    29    33    34    1
    30    34    35    1
    31    35    36    1
    32    13    14   ar
    33    14    15   ar
    34    15    16   ar
    35    16    17   ar
    36    17    37    1
    37    37    38    2
    38    37    39   am
    39    39    41    1
    40    41    42    2
    41    41    43    2
    42    41    44    1
    43    44    45    1
    44    44    46    1
    45    17    18   ar
    46    18    19   ar
    47     6     1   ar
    48     9     7    1
    49    26    22    1
    50    19    11   ar
    51    12     4    1
    52    36    31    1
    53    19    14   ar
    54    30    23    1
    55    39    40    1
@<TRIPOS>MOLECULE
*****
 48 55 0 0 0
SMALL
GASTEIGER

@<TRIPOS>ATOM
      1 C         139.3175  139.8775  154.4775 C.ar    1  UNL1        0.1384
      2 C         140.4744  138.9651  154.7588 C.ar    1  UNL1        0.0369
      3 C         141.0491  138.8872  156.1422 C.ar    1  UNL1        0.0042
      4 C         140.4670  139.7217  157.2442 C.ar    1  UNL1        0.0117
      5 C         139.3101  140.6342  156.9630 C.ar    1  UNL1       -0.0176
      6 C         138.7353  140.7121  155.5796 C.ar    1  UNL1        0.0327
      7 C         138.5854  141.5447  157.9095 C.3     1  UNL1        0.0330
      8 C         137.7344  142.5107  158.6794 C.3     1  UNL1        0.0157
      9 C         138.8386  141.7676  159.3711 C.3     1  UNL1        0.0938
     10 C         139.8791  141.1350  160.2471 C.3     1  UNL1        0.1148
     11 N         140.9233  140.1234  159.8780 N.ar    1  UNL1       -0.3269
     12 C         141.1849  139.4944  158.5415 C.ar    1  UNL1        0.0555
     13 C         142.3375  138.5465  158.6930 C.ar    1  UNL1       -0.0053
     14 C         142.7882  138.5897  160.1230 C.ar    1  UNL1        0.0132
     15 C         143.8816  137.8674  160.8530 C.ar    1  UNL1        0.0013
     16 C         144.1010  138.1197  162.3153 C.ar    1  UNL1        0.0046
     17 C         143.2269  139.0942  163.0476 C.ar    1  UNL1        0.0563
     18 C         142.1335  139.8165  162.3176 C.ar    1  UNL1        0.0217
     19 C         141.9141  139.5642  160.8553 C.ar    1  UNL1        0.0597
     20 C         138.4120  142.5076  160.6042 C.2     1  UNL1        0.2268
     21 O         137.3514  141.9319  161.4951 O.2     1  UNL1       -0.2748
     22 N         139.0459  143.8233  160.9462 N.am    1  UNL1       -0.2800
     23 C         140.1132  144.5199  160.1552 C.3     1  UNL1        0.0913
     24 C         140.4507  145.8006  160.8595 C.3     1  UNL1        0.0230
     25 C         139.5920  145.8954  162.0858 C.3     1  UNL1        0.0230
     26 C         138.7238  144.6734  162.1393 C.3     1  UNL1        0.0913
     27 C         137.9920  143.3685  161.9371 C.3     1  UNL1        0.0922
     28 N         138.4187  142.6285  160.7041 N.3     1  UNL1       -0.2687
     29 C         137.7848  141.3127  160.3619 C.3     1  UNL1        0.0897
     30 C         139.4792  143.2042  159.8131 C.3     1  UNL1        0.0922
     31 C         142.9345  137.7035  157.6055 C.3     1  UNL1        0.0238
     32 C         142.6933  136.2231  157.5861 C.3     1  UNL1        0.0044
     33 C         143.2903  135.3801  156.4987 C.3     1  UNL1        0.0003
     34 C         144.1287  136.0173  155.4304 C.3     1  UNL1        0.0000
     35 C         144.3700  137.4976  155.4498 C.3     1  UNL1        0.0003
     36 C         143.7729  138.3407  156.5373 C.3     1  UNL1        0.0044
     37 C         143.4462  139.3465  164.5098 C.2     1  UNL1        0.2640
     38 O         144.6867  138.8362  165.1812 O.2     1  UNL1       -0.2686
     39 N         142.4251  140.1093  165.3008 N.am    1  UNL1       -0.1853
     40 H         141.6109  140.4442  164.8601 H       1  UNL1        0.1765
     41 S         142.6443  140.3616  166.7630 S.O2    1  UNL1        0.0545
     42 O         143.2839  141.6794  166.4396 O.2     1  UNL1       -0.1545
     43 O         142.0047  139.0439  167.0864 O.2     1  UNL1       -0.1545
     44 C         142.8636  140.6141  168.2252 C.3     1  UNL1        0.1490
     45 C         143.2762  141.9767  168.6975 C.3     1  UNL1        0.0273
     46 C         142.6703  139.5039  169.2152 C.3     1  UNL1        0.0273
     47 C         138.2271  138.7157  152.4255 C.3     1  UNL1        0.2525
     48 O         138.7429  139.9554  153.0942 O.3     1  UNL1       -0.4714
@<TRIPOS>BOND
     1    47    48    1
     2    48     1    1
     3     1     2   ar
     4     2     3   ar
     5     3     4   ar
     6     4     5   ar
     7     5     6   ar
     8     5     7    1
     9     7     8    1
    10     8     9    1
    11     9    20    1
    12    20    21    2
    13    20    22   am
    14    22    23    1
    15    23    24    1
    16    24    25    1
    17    25    26    1
    18    26    27    1
    19    27    28    1
    20    28    29    1
    21    28    30    1
    22     9    10    1
    23    10    11    1
    24    11    12   ar
    25    12    13   ar
    26    13    31    1
    27    31    32    1
    28    32    33    1
    29    33    34    1
    30    34    35    1
    31    35    36    1
    32    13    14   ar
    33    14    15   ar
    34    15    16   ar
    35    16    17   ar
    36    17    37    1
    37    37    38    2
    38    37    39   am
    39    39    41    1
    40    41    42    2
    41    41    43    2
    42    41    44    1
    43    44    45    1
    44    44    46    1
    45    17    18   ar
    46    18    19   ar
    47     6     1   ar
    48     9     7    1
    49    26    22    1
    50    19    11   ar
    51    12     4    1
    52    36    31    1
    53    19    14   ar
    54    30    23    1
    55    39    40    1
@<TRIPOS>MOLECULE
*****
 48 55 0 0 0
SMALL
GASTEIGER

@<TRIPOS>ATOM
      1 C         142.8659  143.7177  154.2306 C.ar    1  UNL1        0.1384
      2 C         142.7126  142.2256  154.2419 C.ar    1  UNL1        0.0369
      3 C         142.2304  141.5306  155.4807 C.ar    1  UNL1        0.0042
      4 C         141.9015  142.3276  156.7080 C.ar    1  UNL1        0.0117
      5 C         142.0548  143.8197  156.6968 C.ar    1  UNL1       -0.0176
      6 C         142.5370  144.5148  155.4581 C.ar    1  UNL1        0.0327
      7 C         141.7842  144.7961  157.8029 C.3     1  UNL1        0.0330
      8 C         141.5780  145.9299  158.7631 C.3     1  UNL1        0.0157
      9 C         141.2935  144.5214  159.1935 C.3     1  UNL1        0.0938
     10 C         140.9522  143.2026  159.8214 C.3     1  UNL1        0.1148
     11 N         141.0173  141.8327  159.2139 N.ar    1  UNL1       -0.3269
     12 C         141.4398  141.4433  157.8283 C.ar    1  UNL1        0.0555
     13 C         141.3291  139.9520  157.7118 C.ar    1  UNL1       -0.0053
     14 C         140.8382  139.4197  159.0255 C.ar    1  UNL1        0.0132
     15 C         140.5418  138.0266  159.4964 C.ar    1  UNL1        0.0013
     16 C         140.0527  137.7961  160.8956 C.ar    1  UNL1        0.0046
     17 C         139.8600  138.9585  161.8238 C.ar    1  UNL1        0.0563
     18 C         140.1564  140.3514  161.3530 C.ar    1  UNL1        0.0217
     19 C         140.6455  140.5821  159.9538 C.ar    1  UNL1        0.0597
     20 C         140.9136  145.1214  160.5148 C.2     1  UNL1        0.2268
     21 O         139.6240  145.8750  160.6533 O.2     1  UNL1       -0.2748
     22 N         141.8232  144.9677  161.6976 N.am    1  UNL1       -0.2800
     23 C         143.1376  144.2451  161.7110 C.3     1  UNL1        0.0913
     24 C         143.7048  144.3405  163.0964 C.3     1  UNL1        0.0230
     25 C         142.7409  145.1220  163.9391 C.3     1  UNL1        0.0230
     26 C         141.5780  145.5096  163.0746 C.3     1  UNL1        0.0913
     27 C         140.5585  145.7524  161.9880 C.3     1  UNL1        0.0922
     28 N         140.9385  145.1524  160.6667 N.3     1  UNL1       -0.2687
     29 C         140.0289  145.3061  159.4838 C.3     1  UNL1        0.0897
     30 C         142.2280  144.3988  160.5282 C.3     1  UNL1        0.0922
     31 C         141.6525  139.1361  156.4955 C.3     1  UNL1        0.0238
     32 C         140.5939  138.8727  155.4658 C.3     1  UNL1        0.0044
     33 C         140.9172  138.0569  154.2494 C.3     1  UNL1        0.0003
     34 C         142.2991  137.5043  154.0625 C.3     1  UNL1        0.0000
     35 C         143.3577  137.7676  155.0921 C.3     1  UNL1        0.0003
     36 C         143.0344  138.5835  156.3086 C.3     1  UNL1        0.0044
     37 C         139.3709  138.7279  163.2230 C.2     1  UNL1        0.2640
     38 O         138.6170  137.4749  163.5570 O.2     1  UNL1       -0.2686
     39 N         139.6357  139.7504  164.2881 N.am    1  UNL1       -0.1853
     40 H         140.1305  140.5727  164.0689 H       1  UNL1        0.1765
     41 S         139.1466  139.5199  165.6873 S.O2    1  UNL1        0.0545
     42 O         140.4591  138.8858  166.0415 O.2     1  UNL1       -0.1545
     43 O         137.8342  140.1540  165.3331 O.2     1  UNL1       -0.1545
     44 C         138.6576  139.2894  167.0864 C.3     1  UNL1        0.1490
     45 C         137.4935  138.3762  167.3332 C.3     1  UNL1        0.0273
     46 C         139.3328  139.9721  168.2388 C.3     1  UNL1        0.0273
     47 C         144.6717  145.1186  152.9951 C.3     1  UNL1        0.2525
     48 O         143.3481  144.4127  152.9920 O.3     1  UNL1       -0.4714
@<TRIPOS>BOND
     1    47    48    1
     2    48     1    1
     3     1     2   ar
     4     2     3   ar
     5     3     4   ar
     6     4     5   ar
     7     5     6   ar
     8     5     7    1
     9     7     8    1
    10     8     9    1
    11     9    20    1
    12    20    21    2
    13    20    22   am
    14    22    23    1
    15    23    24    1
    16    24    25    1
    17    25    26    1
    18    26    27    1
    19    27    28    1
    20    28    29    1
    21    28    30    1
    22     9    10    1
    23    10    11    1
    24    11    12   ar
    25    12    13   ar
    26    13    31    1
    27    31    32    1
    28    32    33    1
    29    33    34    1
    30    34    35    1
    31    35    36    1
    32    13    14   ar
    33    14    15   ar
    34    15    16   ar
    35    16    17   ar
    36    17    37    1
    37    37    38    2
    38    37    39   am
    39    39    41    1
    40    41    42    2
    41    41    43    2
    42    41    44    1
    43    44    45    1
    44    44    46    1
    45    17    18   ar
    46    18    19   ar
    47     6     1   ar
    48     9     7    1
    49    26    22    1
    50    19    11   ar
    51    12     4    1
    52    36    31    1
    53    19    14   ar
    54    30    23    1
    55    39    40    1
