@<TRIPOS>MOLECULE
*****
 29 33 0 0 0
SMALL
GASTEIGER

@<TRIPOS>ATOM
      1 C         139.5062  140.2712  163.1354 C.3     1  UNL1        0.0181
      2 C         140.5073  140.7743  164.1328 C.3     1  UNL1        0.0036
      3 C         141.3762  141.0656  165.3203 C.3     1  UNL1        0.0227
      4 C         140.9539  140.1584  166.4376 C.3     1  UNL1        0.0870
      5 C         139.8238  139.3063  165.9408 C.3     1  UNL1        0.0227
      6 C         139.5478  139.6869  164.5164 C.3     1  UNL1        0.0036
      7 N         141.5558  140.1115  167.8107 N.ar    1  UNL1       -0.3108
      8 C         142.7110  139.2555  168.2382 C.ar    1  UNL1        0.1785
      9 N         142.9774  139.5273  169.6891 N.ar    1  UNL1       -0.2223
     10 C         141.9868  140.5513  170.1584 C.ar    1  UNL1        0.1179
     11 C         141.7713  141.2016  171.4927 C.ar    1  UNL1        0.1194
     12 N         140.6773  142.2130  171.6662 N.ar    1  UNL1       -0.2406
     13 C         139.7987  142.5740  170.5053 C.ar    1  UNL1        0.1005
     14 C         140.0142  141.9237  169.1709 C.ar    1  UNL1        0.0394
     15 C         141.1082  140.9124  168.9974 C.ar    1  UNL1        0.0820
     16 C         138.9042  140.3181  161.7624 C.3     1  UNL1        0.0718
     17 N         139.4901  141.2203  160.7170 N.am    1  UNL1       -0.3025
     18 C         138.8961  142.5769  160.4786 C.2     1  UNL1        0.2458
     19 O         137.7162  143.0313  161.2857 O.2     1  UNL1       -0.2701
     20 H         140.2645  140.9220  160.1873 H       1  UNL1        0.1497
     21 C         139.4821  143.4791  159.4332 C.ar    1  UNL1        0.0534
     22 C         140.3476  144.6347  159.8395 C.ar    1  UNL1        0.0054
     23 C         140.9336  145.5369  158.7941 C.ar    1  UNL1        0.0115
     24 C         140.6539  145.2833  157.3424 C.ar    1  UNL1        0.0577
     25 CL        141.2398  146.1854  156.2971 Cl      1  UNL1       -0.0822
     26 C         139.7883  144.1276  156.9361 C.ar    1  UNL1        0.0115
     27 C         139.2024  143.2254  157.9814 C.ar    1  UNL1        0.0054
     28 C         137.7311  138.0000  161.7655 C.3     1  UNL1        0.0017
     29 C         137.7163  139.4629  161.4346 C.3     1  UNL1        0.0196
@<TRIPOS>BOND
     1    28    29    1
     2    29    16    1
     3    16    17    1
     4    17    18   am
     5    18    19    2
     6    18    21    1
     7    21    22   ar
     8    22    23   ar
     9    23    24   ar
    10    24    25    1
    11    24    26   ar
    12    26    27   ar
    13     1    16    1
    14     1     2    1
    15     2     3    1
    16     3     4    1
    17     4     7    1
    18     7     8   ar
    19     8     9   ar
    20     9    10   ar
    21    10    11   ar
    22    11    12   ar
    23    12    13   ar
    24    13    14   ar
    25    14    15   ar
    26     4     5    1
    27     6     5    1
    28    27    21   ar
    29     6     1    1
    30     6     2    1
    31    15     7   ar
    32    15    10   ar
    33    17    20    1
@<TRIPOS>MOLECULE
*****
 29 33 0 0 0
SMALL
GASTEIGER

@<TRIPOS>ATOM
      1 C         141.7077  143.8910  163.1261 C.3     1  UNL1        0.0181
      2 C         142.5490  143.3558  164.2468 C.3     1  UNL1        0.0036
      3 C         143.1151  142.7254  165.4846 C.3     1  UNL1        0.0227
      4 C         141.9759  142.1588  166.2790 C.3     1  UNL1        0.0870
      5 C         140.7055  142.4388  165.5321 C.3     1  UNL1        0.0227
      6 C         141.0597  143.1786  164.2762 C.3     1  UNL1        0.0036
      7 N         142.0874  141.4385  167.5900 N.ar    1  UNL1       -0.3108
      8 C         142.8792  140.1904  167.8457 C.ar    1  UNL1        0.1785
      9 N         142.7077  139.8204  169.2892 N.ar    1  UNL1       -0.2223
     10 C         141.8100  140.8398  169.9256 C.ar    1  UNL1        0.1179
     11 C         141.2921  140.9866  171.3257 C.ar    1  UNL1        0.1194
     12 N         140.3908  142.1334  171.6755 N.ar    1  UNL1       -0.2406
     13 C         140.0074  143.1334  170.6253 C.ar    1  UNL1        0.1005
     14 C         140.5253  142.9866  169.2252 C.ar    1  UNL1        0.0394
     15 C         141.4265  141.8398  168.8754 C.ar    1  UNL1        0.0820
     16 C         141.5962  144.6113  161.8152 C.3     1  UNL1        0.0718
     17 N         142.5371  144.2799  160.6949 N.am    1  UNL1       -0.3025
     18 C         142.0836  143.3954  159.5715 C.2     1  UNL1        0.2458
     19 O         140.6893  142.8424  159.5682 O.2     1  UNL1       -0.2701
     20 H         143.4522  144.6428  160.6970 H       1  UNL1        0.1497
     21 C         143.0245  143.0640  158.4511 C.ar    1  UNL1        0.0534
     22 C         144.4167  142.5956  158.7548 C.ar    1  UNL1        0.0054
     23 C         145.3576  142.2642  157.6345 C.ar    1  UNL1        0.0115
     24 C         144.9062  142.4012  156.2107 C.ar    1  UNL1        0.0577
     25 CL        145.8471  142.0698  155.0904 Cl      1  UNL1       -0.0822
     26 C         143.5139  142.8696  155.9070 C.ar    1  UNL1        0.0115
     27 C         142.5731  143.2011  157.0272 C.ar    1  UNL1        0.0054
     28 C         139.2116  145.5221  162.2989 C.3     1  UNL1        0.0017
     29 C         140.5439  145.6631  161.6243 C.3     1  UNL1        0.0196
@<TRIPOS>BOND
     1    28    29    1
     2    29    16    1
     3    16    17    1
     4    17    18   am
     5    18    19    2
     6    18    21    1
     7    21    22   ar
     8    22    23   ar
     9    23    24   ar
    10    24    25    1
    11    24    26   ar
    12    26    27   ar
    13     1    16    1
    14     1     2    1
    15     2     3    1
    16     3     4    1
    17     4     7    1
    18     7     8   ar
    19     8     9   ar
    20     9    10   ar
    21    10    11   ar
    22    11    12   ar
    23    12    13   ar
    24    13    14   ar
    25    14    15   ar
    26     4     5    1
    27     6     5    1
    28    27    21   ar
    29     6     1    1
    30     6     2    1
    31    15     7   ar
    32    15    10   ar
    33    17    20    1
@<TRIPOS>MOLECULE
*****
 29 33 0 0 0
SMALL
GASTEIGER

@<TRIPOS>ATOM
      1 C         142.3802  137.3206  157.4289 C.3     1  UNL1        0.0181
      2 C         141.7322  136.4309  156.4098 C.3     1  UNL1        0.0036
      3 C         141.3651  135.4014  155.3824 C.3     1  UNL1        0.0227
      4 C         142.5721  134.5475  155.1297 C.3     1  UNL1        0.0870
      5 C         143.6853  135.0492  156.0009 C.3     1  UNL1        0.0227
      6 C         143.1663  136.2131  156.7920 C.3     1  UNL1        0.0036
      7 N         142.6519  133.3944  154.1737 N.ar    1  UNL1       -0.3108
      8 C         142.0012  133.3214  152.8242 C.ar    1  UNL1        0.1785
      9 N         142.3437  131.9937  152.2158 N.ar    1  UNL1       -0.2223
     10 C         143.2060  131.2463  153.1893 C.ar    1  UNL1        0.1179
     11 C         143.8423  129.8893  153.1303 C.ar    1  UNL1        0.1194
     12 N         144.6692  129.3980  154.2813 N.ar    1  UNL1       -0.2406
     13 C         144.8597  130.2637  155.4914 C.ar    1  UNL1        0.1005
     14 C         144.2234  131.6207  155.5504 C.ar    1  UNL1        0.0394
     15 C         143.3965  132.1120  154.3994 C.ar    1  UNL1        0.0820
     16 C         142.3004  138.4737  158.3849 C.3     1  UNL1        0.0718
     17 N         141.4211  138.3837  159.5968 N.am    1  UNL1       -0.3025
     18 C         142.0004  137.9594  160.9138 C.2     1  UNL1        0.2458
     19 O         143.4589  137.6251  161.0189 O.2     1  UNL1       -0.2701
     20 H         140.4639  138.6030  159.5279 H       1  UNL1        0.1497
     21 C         141.1211  137.8694  162.1258 C.ar    1  UNL1        0.0534
     22 C         139.6324  137.9845  161.9826 C.ar    1  UNL1        0.0054
     23 C         138.7532  137.8945  163.1945 C.ar    1  UNL1        0.0115
     24 C         139.3626  137.6894  164.5497 C.ar    1  UNL1        0.0577
     25 CL        138.4833  137.5994  165.7616 Cl      1  UNL1       -0.0822
     26 C         140.8513  137.5743  164.6929 C.ar    1  UNL1        0.0115
     27 C         141.7306  137.6643  163.4810 C.ar    1  UNL1        0.0054
     28 C         143.7523  139.9277  156.7950 C.3     1  UNL1        0.0017
     29 C         143.0998  139.7169  158.1290 C.3     1  UNL1        0.0196
@<TRIPOS>BOND
     1    28    29    1
     2    29    16    1
     3    16    17    1
     4    17    18   am
     5    18    19    2
     6    18    21    1
     7    21    22   ar
     8    22    23   ar
     9    23    24   ar
    10    24    25    1
    11    24    26   ar
    12    26    27   ar
    13     1    16    1
    14     1     2    1
    15     2     3    1
    16     3     4    1
    17     4     7    1
    18     7     8   ar
    19     8     9   ar
    20     9    10   ar
    21    10    11   ar
    22    11    12   ar
    23    12    13   ar
    24    13    14   ar
    25    14    15   ar
    26     4     5    1
    27     6     5    1
    28    27    21   ar
    29     6     1    1
    30     6     2    1
    31    15     7   ar
    32    15    10   ar
    33    17    20    1
@<TRIPOS>MOLECULE
*****
 29 33 0 0 0
SMALL
GASTEIGER

@<TRIPOS>ATOM
      1 C         140.7111  143.3210  162.7034 C.3     1  UNL1        0.0181
      2 C         139.8216  142.7312  163.7575 C.3     1  UNL1        0.0036
      3 C         139.1995  142.1092  164.9725 C.3     1  UNL1        0.0227
      4 C         140.2918  141.8323  165.9624 C.3     1  UNL1        0.0870
      5 C         141.5892  142.2830  165.3593 C.3     1  UNL1        0.0227
      6 C         141.2985  142.8385  163.9966 C.3     1  UNL1        0.0036
      7 N         140.1175  141.2133  167.3176 N.ar    1  UNL1       -0.3108
      8 C         139.2871  140.0051  167.6348 C.ar    1  UNL1        0.1785
      9 N         139.3994  139.7390  169.1068 N.ar    1  UNL1       -0.2223
     10 C         140.2994  140.7826  169.6992 C.ar    1  UNL1        0.1179
     11 C         140.7720  141.0209  171.1027 C.ar    1  UNL1        0.1194
     12 N         141.6885  142.1704  171.4003 N.ar    1  UNL1       -0.2406
     13 C         142.1323  143.0816  170.2946 C.ar    1  UNL1        0.1005
     14 C         141.6597  142.8433  168.8911 C.ar    1  UNL1        0.0394
     15 C         140.7432  141.6938  168.5934 C.ar    1  UNL1        0.0820
     16 C         140.8854  143.9399  161.3483 C.3     1  UNL1        0.0718
     17 N         141.4852  143.1402  160.2300 N.am    1  UNL1       -0.3025
     18 C         142.9731  142.9716  160.1427 C.2     1  UNL1        0.2458
     19 O         143.8613  143.6027  161.1737 O.2     1  UNL1       -0.2701
     20 H         140.9023  142.7261  159.5533 H       1  UNL1        0.1497
     21 C         143.5730  142.1719  159.0243 C.ar    1  UNL1        0.0534
     22 C         144.8026  142.6680  158.3231 C.ar    1  UNL1        0.0054
     23 C         145.4024  141.8683  157.2047 C.ar    1  UNL1        0.0115
     24 C         144.7726  140.5724  156.7877 C.ar    1  UNL1        0.0577
     25 CL        145.3724  139.7728  155.6693 Cl      1  UNL1       -0.0822
     26 C         143.5429  140.0762  157.4889 C.ar    1  UNL1        0.0115
     27 C         142.9431  140.8759  158.6073 C.ar    1  UNL1        0.0054
     28 C         139.6392  146.0774  162.1409 C.3     1  UNL1        0.0017
     29 C         140.4598  145.3587  161.1114 C.3     1  UNL1        0.0196
@<TRIPOS>BOND
     1    28    29    1
     2    29    16    1
     3    16    17    1
     4    17    18   am
     5    18    19    2
     6    18    21    1
     7    21    22   ar
     8    22    23   ar
     9    23    24   ar
    10    24    25    1
    11    24    26   ar
    12    26    27   ar
    13     1    16    1
    14     1     2    1
    15     2     3    1
    16     3     4    1
    17     4     7    1
    18     7     8   ar
    19     8     9   ar
    20     9    10   ar
    21    10    11   ar
    22    11    12   ar
    23    12    13   ar
    24    13    14   ar
    25    14    15   ar
    26     4     5    1
    27     6     5    1
    28    27    21   ar
    29     6     1    1
    30     6     2    1
    31    15     7   ar
    32    15    10   ar
    33    17    20    1
@<TRIPOS>MOLECULE
*****
 29 33 0 0 0
SMALL
GASTEIGER

@<TRIPOS>ATOM
      1 C         140.1547  138.0410  156.9747 C.3     1  UNL1        0.0181
      2 C         139.9743  138.2701  158.4462 C.3     1  UNL1        0.0036
      3 C         139.6428  138.7582  159.8253 C.3     1  UNL1        0.0227
      4 C         138.8823  140.0442  159.6916 C.3     1  UNL1        0.0870
      5 C         138.7438  140.3510  158.2299 C.3     1  UNL1        0.0227
      6 C         139.4187  139.2546  157.4602 C.3     1  UNL1        0.0036
      7 N         138.3532  140.8772  160.8213 N.ar    1  UNL1       -0.3108
      8 C         137.3818  140.4245  161.8709 C.ar    1  UNL1        0.1785
      9 N         137.1309  141.5766  162.7979 N.ar    1  UNL1       -0.2223
     10 C         137.9471  142.7414  162.3213 C.ar    1  UNL1        0.1179
     11 C         138.1000  144.1398  162.8419 C.ar    1  UNL1        0.1194
     12 N         139.0084  145.1059  162.1409 N.ar    1  UNL1       -0.2406
     13 C         139.7638  144.6736  160.9192 C.ar    1  UNL1        0.1005
     14 C         139.6109  143.2752  160.3986 C.ar    1  UNL1        0.0394
     15 C         138.7025  142.3091  161.0997 C.ar    1  UNL1        0.0820
     16 C         140.6838  137.2081  155.8451 C.3     1  UNL1        0.0718
     17 N         141.1026  135.7890  156.0917 N.am    1  UNL1       -0.3025
     18 C         142.5345  135.4738  156.4085 C.2     1  UNL1        0.2458
     19 O         143.5476  136.5778  156.4787 O.2     1  UNL1       -0.2701
     20 H         140.4376  135.0644  156.0456 H       1  UNL1        0.1497
     21 C         142.9533  134.0547  156.6551 C.ar    1  UNL1        0.0534
     22 C         142.2250  132.9299  155.9812 C.ar    1  UNL1        0.0054
     23 C         142.6437  131.5108  156.2278 C.ar    1  UNL1        0.0115
     24 C         143.7908  131.2166  157.1484 C.ar    1  UNL1        0.0577
     25 CL        144.2096  129.7975  157.3949 Cl      1  UNL1       -0.0822
     26 C         144.5192  132.3414  157.8223 C.ar    1  UNL1        0.0115
     27 C         144.1005  133.7605  157.5758 C.ar    1  UNL1        0.0054
     28 C         141.8486  138.8188  154.1721 C.3     1  UNL1        0.0017
     29 C         140.7941  137.7942  154.4687 C.3     1  UNL1        0.0196
@<TRIPOS>BOND
     1    28    29    1
     2    29    16    1
     3    16    17    1
     4    17    18   am
     5    18    19    2
     6    18    21    1
     7    21    22   ar
     8    22    23   ar
     9    23    24   ar
    10    24    25    1
    11    24    26   ar
    12    26    27   ar
    13     1    16    1
    14     1     2    1
    15     2     3    1
    16     3     4    1
    17     4     7    1
    18     7     8   ar
    19     8     9   ar
    20     9    10   ar
    21    10    11   ar
    22    11    12   ar
    23    12    13   ar
    24    13    14   ar
    25    14    15   ar
    26     4     5    1
    27     6     5    1
    28    27    21   ar
    29     6     1    1
    30     6     2    1
    31    15     7   ar
    32    15    10   ar
    33    17    20    1
@<TRIPOS>MOLECULE
*****
 29 33 0 0 0
SMALL
GASTEIGER

@<TRIPOS>ATOM
      1 C         137.4222  142.6338  156.3418 C.3     1  UNL1        0.0181
      2 C         137.9129  142.4422  157.7463 C.3     1  UNL1        0.0036
      3 C         138.6195  142.4632  159.0693 C.3     1  UNL1        0.0227
      4 C         139.7538  143.4398  158.9736 C.3     1  UNL1        0.0870
      5 C         139.7485  144.0225  157.5914 C.3     1  UNL1        0.0227
      6 C         138.6108  143.4059  156.8329 C.3     1  UNL1        0.0036
      7 N         140.7234  143.7751  160.0680 N.ar    1  UNL1       -0.3108
      8 C         142.2165  143.8318  159.9362 C.ar    1  UNL1        0.1785
      9 N         142.7860  144.2042  161.2730 N.ar    1  UNL1       -0.2223
     10 C         141.6448  144.3776  162.2310 C.ar    1  UNL1        0.1179
     11 C         141.6017  144.7427  163.6852 C.ar    1  UNL1        0.1194
     12 N         140.2839  144.8426  164.3946 N.ar    1  UNL1       -0.2406
     13 C         139.0092  144.5773  163.6499 C.ar    1  UNL1        0.1005
     14 C         139.0522  144.2122  162.1957 C.ar    1  UNL1        0.0394
     15 C         140.3700  144.1123  161.4862 C.ar    1  UNL1        0.0820
     16 C         136.4527  142.2986  155.2475 C.3     1  UNL1        0.0718
     17 N         135.0405  141.9227  155.5857 N.am    1  UNL1       -0.3025
     18 C         134.6527  140.4772  155.6861 C.2     1  UNL1        0.2458
     19 O         135.6770  139.4076  155.4482 O.2     1  UNL1       -0.2701
     20 H         134.3682  142.6247  155.7419 H       1  UNL1        0.1497
     21 C         133.2404  140.1013  156.0244 C.ar    1  UNL1        0.0534
     22 C         132.1242  141.0691  155.7655 C.ar    1  UNL1        0.0054
     23 C         130.7120  140.6933  156.1037 C.ar    1  UNL1        0.0115
     24 C         130.4161  139.3494  156.7008 C.ar    1  UNL1        0.0577
     25 CL        129.0039  138.9736  157.0391 Cl      1  UNL1       -0.0822
     26 C         131.5323  138.3815  156.9597 C.ar    1  UNL1        0.0115
     27 C         132.9445  138.7573  156.6215 C.ar    1  UNL1        0.0054
     28 C         136.5828  143.5365  152.9670 C.3     1  UNL1        0.0017
     29 C         136.8953  142.3393  153.8148 C.3     1  UNL1        0.0196
@<TRIPOS>BOND
     1    28    29    1
     2    29    16    1
     3    16    17    1
     4    17    18   am
     5    18    19    2
     6    18    21    1
     7    21    22   ar
     8    22    23   ar
     9    23    24   ar
    10    24    25    1
    11    24    26   ar
    12    26    27   ar
    13     1    16    1
    14     1     2    1
    15     2     3    1
    16     3     4    1
    17     4     7    1
    18     7     8   ar
    19     8     9   ar
    20     9    10   ar
    21    10    11   ar
    22    11    12   ar
    23    12    13   ar
    24    13    14   ar
    25    14    15   ar
    26     4     5    1
    27     6     5    1
    28    27    21   ar
    29     6     1    1
    30     6     2    1
    31    15     7   ar
    32    15    10   ar
    33    17    20    1
@<TRIPOS>MOLECULE
*****
 29 33 0 0 0
SMALL
GASTEIGER

@<TRIPOS>ATOM
      1 C         143.0467  139.7064  162.1264 C.3     1  UNL1        0.0181
      2 C         141.9357  139.0528  161.3592 C.3     1  UNL1        0.0036
      3 C         141.0214  138.4254  160.3491 C.3     1  UNL1        0.0227
      4 C         141.7297  138.4135  159.0269 C.3     1  UNL1        0.0870
      5 C         143.0818  139.0337  159.2198 C.3     1  UNL1        0.0227
      6 C         143.2091  139.4288  160.6612 C.3     1  UNL1        0.0036
      7 N         141.1820  137.8759  157.7381 N.ar    1  UNL1       -0.3108
      8 C         139.8276  138.1702  157.1647 C.ar    1  UNL1        0.1785
      9 N         139.7012  137.4258  155.8686 N.ar    1  UNL1       -0.2223
     10 C         140.9776  136.6714  155.6410 C.ar    1  UNL1        0.1179
     11 C         141.4247  135.7672  154.5309 C.ar    1  UNL1        0.1194
     12 N         142.7870  135.1411  154.5762 N.ar    1  UNL1       -0.2406
     13 C         143.7022  135.4193  155.7316 C.ar    1  UNL1        0.1005
     14 C         143.2551  136.3235  156.8417 C.ar    1  UNL1        0.0394
     15 C         141.8928  136.9496  156.7964 C.ar    1  UNL1        0.0820
     16 C         143.5944  140.2440  163.4152 C.3     1  UNL1        0.0718
     17 N         142.6851  140.4430  164.5914 N.am    1  UNL1       -0.3025
     18 C         142.7036  139.4640  165.7278 C.2     1  UNL1        0.2458
     19 O         143.6314  138.2860  165.6878 O.2     1  UNL1       -0.2701
     20 H         142.0762  141.2161  164.6177 H       1  UNL1        0.1497
     21 C         141.7943  139.6629  166.9041 C.ar    1  UNL1        0.0534
     22 C         140.3163  139.8072  166.6936 C.ar    1  UNL1        0.0054
     23 C         139.4070  140.0062  167.8698 C.ar    1  UNL1        0.0115
     24 C         139.9759  140.0609  169.2567 C.ar    1  UNL1        0.0577
     25 CL        139.0666  140.2599  170.4329 Cl      1  UNL1       -0.0822
     26 C         141.4540  139.9166  169.4673 C.ar    1  UNL1        0.0115
     27 C         142.3633  139.7176  168.2910 C.ar    1  UNL1        0.0054
     28 C         145.5760  141.8495  162.9198 C.3     1  UNL1        0.0017
     29 C         145.0513  140.5827  163.5278 C.3     1  UNL1        0.0196
@<TRIPOS>BOND
     1    28    29    1
     2    29    16    1
     3    16    17    1
     4    17    18   am
     5    18    19    2
     6    18    21    1
     7    21    22   ar
     8    22    23   ar
     9    23    24   ar
    10    24    25    1
    11    24    26   ar
    12    26    27   ar
    13     1    16    1
    14     1     2    1
    15     2     3    1
    16     3     4    1
    17     4     7    1
    18     7     8   ar
    19     8     9   ar
    20     9    10   ar
    21    10    11   ar
    22    11    12   ar
    23    12    13   ar
    24    13    14   ar
    25    14    15   ar
    26     4     5    1
    27     6     5    1
    28    27    21   ar
    29     6     1    1
    30     6     2    1
    31    15     7   ar
    32    15    10   ar
    33    17    20    1
@<TRIPOS>MOLECULE
*****
 29 33 0 0 0
SMALL
GASTEIGER

@<TRIPOS>ATOM
      1 C         140.4795  145.1613  157.9548 C.3     1  UNL1        0.0181
      2 C         140.3448  145.5248  159.4039 C.3     1  UNL1        0.0036
      3 C         140.1151  145.5910  160.8848 C.3     1  UNL1        0.0227
      4 C         139.6330  144.2455  161.3397 C.3     1  UNL1        0.0870
      5 C         139.5646  143.3476  160.1401 C.3     1  UNL1        0.0227
      6 C         140.0046  144.1383  158.9437 C.3     1  UNL1        0.0036
      7 N         139.2809  143.8647  162.7472 N.ar    1  UNL1       -0.3108
      8 C         137.9005  143.8344  163.3334 C.ar    1  UNL1        0.1785
      9 N         138.0140  143.3982  164.7641 N.ar    1  UNL1       -0.2223
     10 C         139.4645  143.1589  165.0621 C.ar    1  UNL1        0.1179
     11 C         140.1735  142.7158  166.3075 C.ar    1  UNL1        0.1194
     12 N         141.6654  142.5609  166.3063 N.ar    1  UNL1       -0.2406
     13 C         142.4484  142.8492  165.0598 C.ar    1  UNL1        0.1005
     14 C         141.7395  143.2923  163.8145 C.ar    1  UNL1        0.0394
     15 C         140.2475  143.4472  163.8156 C.ar    1  UNL1        0.0820
     16 C         140.8315  145.5421  156.5474 C.3     1  UNL1        0.0718
     17 N         140.6810  146.9644  156.0952 N.am    1  UNL1       -0.3025
     18 C         139.4015  147.4168  155.4564 C.2     1  UNL1        0.2458
     19 O         138.2725  146.4470  155.2696 O.2     1  UNL1       -0.2701
     20 H         141.4219  147.6010  156.2178 H       1  UNL1        0.1497
     21 C         139.2509  148.8392  155.0042 C.ar    1  UNL1        0.0534
     22 C         139.7756  149.2594  153.6634 C.ar    1  UNL1        0.0054
     23 C         139.6251  150.6817  153.2112 C.ar    1  UNL1        0.0115
     24 C         138.9498  151.6837  154.0999 C.ar    1  UNL1        0.0577
     25 CL        138.7993  153.1060  153.6478 Cl      1  UNL1       -0.0822
     26 C         138.4251  151.2635  155.4409 C.ar    1  UNL1        0.0115
     27 C         138.5756  149.8412  155.8930 C.ar    1  UNL1        0.0054
     28 C         142.4827  143.6179  155.9809 C.3     1  UNL1        0.0017
     29 C         141.3342  144.5007  155.5919 C.3     1  UNL1        0.0196
@<TRIPOS>BOND
     1    28    29    1
     2    29    16    1
     3    16    17    1
     4    17    18   am
     5    18    19    2
     6    18    21    1
     7    21    22   ar
     8    22    23   ar
     9    23    24   ar
    10    24    25    1
    11    24    26   ar
    12    26    27   ar
    13     1    16    1
    14     1     2    1
    15     2     3    1
    16     3     4    1
    17     4     7    1
    18     7     8   ar
    19     8     9   ar
    20     9    10   ar
    21    10    11   ar
    22    11    12   ar
    23    12    13   ar
    24    13    14   ar
    25    14    15   ar
    26     4     5    1
    27     6     5    1
    28    27    21   ar
    29     6     1    1
    30     6     2    1
    31    15     7   ar
    32    15    10   ar
    33    17    20    1
@<TRIPOS>MOLECULE
*****
 29 33 0 0 0
SMALL
GASTEIGER

@<TRIPOS>ATOM
      1 C         137.2320  141.0343  156.6832 C.3     1  UNL1        0.0181
      2 C         137.7730  141.0577  158.0821 C.3     1  UNL1        0.0036
      3 C         138.4241  141.3631  159.3985 C.3     1  UNL1        0.0227
      4 C         139.0634  142.7161  159.2967 C.3     1  UNL1        0.0870
      5 C         138.8076  143.2471  157.9173 C.3     1  UNL1        0.0227
      6 C         138.0101  142.2221  157.1667 C.3     1  UNL1        0.0036
      7 N         139.8250  143.4155  160.3834 N.ar    1  UNL1       -0.3108
      8 C         141.2375  143.9119  160.2910 C.ar    1  UNL1        0.1785
      9 N         141.5932  144.5444  161.6038 N.ar    1  UNL1       -0.2223
     10 C         140.4006  144.4389  162.5075 C.ar    1  UNL1        0.1179
     11 C         140.1685  144.8881  163.9197 C.ar    1  UNL1        0.1194
     12 N         138.8437  144.6394  164.5776 N.ar    1  UNL1       -0.2406
     13 C         137.7509  143.9417  163.8233 C.ar    1  UNL1        0.1005
     14 C         137.9829  143.4926  162.4111 C.ar    1  UNL1        0.0394
     15 C         139.3078  143.7412  161.7532 C.ar    1  UNL1        0.0820
     16 C         136.4705  140.3350  155.5965 C.3     1  UNL1        0.0718
     17 N         135.0206  140.6491  155.3752 N.am    1  UNL1       -0.3025
     18 C         133.9996  140.2357  156.3934 C.2     1  UNL1        0.2458
     19 O         134.4286  139.5081  157.6330 O.2     1  UNL1       -0.2701
     20 H         134.7390  141.1267  154.5616 H       1  UNL1        0.1497
     21 C         132.5496  140.5499  156.1720 C.ar    1  UNL1        0.0534
     22 C         131.4932  139.7516  156.8766 C.ar    1  UNL1        0.0054
     23 C         130.0433  140.0658  156.6552 C.ar    1  UNL1        0.0115
     24 C         129.6498  141.1783  155.7292 C.ar    1  UNL1        0.0577
     25 CL        128.1999  141.4924  155.5078 Cl      1  UNL1       -0.0822
     26 C         130.7063  141.9766  155.0245 C.ar    1  UNL1        0.0115
     27 C         132.1562  141.6624  155.2459 C.ar    1  UNL1        0.0054
     28 C         136.3728  138.1999  154.1194 C.3     1  UNL1        0.0017
     29 C         137.1588  139.3214  154.7311 C.3     1  UNL1        0.0196
@<TRIPOS>BOND
     1    28    29    1
     2    29    16    1
     3    16    17    1
     4    17    18   am
     5    18    19    2
     6    18    21    1
     7    21    22   ar
     8    22    23   ar
     9    23    24   ar
    10    24    25    1
    11    24    26   ar
    12    26    27   ar
    13     1    16    1
    14     1     2    1
    15     2     3    1
    16     3     4    1
    17     4     7    1
    18     7     8   ar
    19     8     9   ar
    20     9    10   ar
    21    10    11   ar
    22    11    12   ar
    23    12    13   ar
    24    13    14   ar
    25    14    15   ar
    26     4     5    1
    27     6     5    1
    28    27    21   ar
    29     6     1    1
    30     6     2    1
    31    15     7   ar
    32    15    10   ar
    33    17    20    1
