@<TRIPOS>MOLECULE
*****
 30 32 0 0 0
SMALL
GASTEIGER

@<TRIPOS>ATOM
      1 C         138.4961  139.1238  165.9151 C.ar    1  UNL1       -0.0001
      2 C         138.8592  137.8013  165.3077 C.ar    1  UNL1       -0.0003
      3 C         138.9413  137.6580  163.8168 C.ar    1  UNL1       -0.0031
      4 C         138.6604  138.8372  162.9334 C.ar    1  UNL1       -0.0071
      5 C         138.2973  140.1597  163.5409 C.ar    1  UNL1       -0.0071
      6 C         138.2152  140.3030  165.0317 C.ar    1  UNL1       -0.0031
      7 C         138.0759  141.1374  162.4249 C.3     1  UNL1        0.1222
      8 N         138.3022  140.4190  161.1277 N.3     1  UNL1       -0.1466
      9 C         138.6634  138.9974  161.4420 C.3     1  UNL1        0.1222
     10 S         138.1874  141.0171  159.7569 S.O2    1  UNL1        0.0639
     11 O         138.0952  139.6420  159.1646 O.2     1  UNL1       -0.1528
     12 O         138.2797  142.3921  160.3491 O.2     1  UNL1       -0.1528
     13 C         138.0727  141.6152  158.3861 C.ar    1  UNL1        0.1222
     14 C         138.8403  142.8575  158.0432 C.ar    1  UNL1        0.0199
     15 C         138.7255  143.4556  156.6724 C.ar    1  UNL1        0.0052
     16 C         137.8431  142.8115  155.6445 C.ar    1  UNL1        0.0715
     17 C         137.0755  141.5693  155.9874 C.ar    1  UNL1        0.0052
     18 C         137.1903  140.9711  157.3583 C.ar    1  UNL1        0.0199
     19 C         137.7283  143.4096  154.2737 C.3     1  UNL1        0.4186
     20 F         137.6135  144.0078  152.9030 F       1  UNL1       -0.1659
     21 F         138.3686  142.1869  153.6866 F       1  UNL1       -0.1659
     22 F         137.0880  144.6325  154.8610 F       1  UNL1       -0.1659
     23 C         139.4845  140.0108  168.1481 C.2     1  UNL1        0.0598
     24 C         138.4140  139.2671  167.4060 C.2     1  UNL1        0.0047
     25 O         138.0815  140.0090  170.3348 O.2     1  UNL1       -0.2681
     26 C         139.4024  140.1541  169.6390 C.2     1  UNL1        0.2679
     27 N         140.6413  140.4424  170.4341 N.am    1  UNL1       -0.1934
     28 O         140.5591  140.5857  171.9250 O.3     1  UNL1       -0.2949
     29 H         141.5082  140.5377  169.9775 H       1  UNL1        0.1825
     30 H         139.6404  140.4640  172.2114 H       1  UNL1        0.2414
@<TRIPOS>BOND
     1    25    26    2
     2    26    23    1
     3    23    24    2
     4    24     1    1
     5     1     2   ar
     6     2     3   ar
     7     3     4   ar
     8     4     5   ar
     9     5     6   ar
    10     5     7    1
    11     7     8    1
    12     8    10    1
    13    10    11    2
    14    10    12    2
    15    10    13    1
    16    13    14   ar
    17    14    15   ar
    18    15    16   ar
    19    16    19    1
    20    19    20    1
    21    19    21    1
    22    19    22    1
    23    16    17   ar
    24    17    18   ar
    25     8     9    1
    26    26    27   am
    27    27    28    1
    28     6     1   ar
    29    18    13   ar
    30     9     4    1
    31    27    29    1
    32    28    30    1
@<TRIPOS>MOLECULE
*****
 30 32 0 0 0
SMALL
GASTEIGER

@<TRIPOS>ATOM
      1 C         138.9236  139.6053  166.0500 C.ar    1  UNL1       -0.0001
      2 C         138.7535  138.4050  165.1666 C.ar    1  UNL1       -0.0003
      3 C         138.7970  138.5591  163.6752 C.ar    1  UNL1       -0.0031
      4 C         139.0107  139.9135  163.0671 C.ar    1  UNL1       -0.0071
      5 C         139.1808  141.1138  163.9504 C.ar    1  UNL1       -0.0071
      6 C         139.1372  140.9597  165.4418 C.ar    1  UNL1       -0.0031
      7 C         139.3746  142.3132  163.0705 C.3     1  UNL1        0.1222
      8 N         139.3242  141.8540  161.6434 N.3     1  UNL1       -0.1466
      9 C         139.0993  140.3710  161.6413 C.3     1  UNL1        0.1222
     10 S         139.4727  142.7250  160.4312 S.O2    1  UNL1        0.0639
     11 O         140.8846  142.2478  160.2612 O.2     1  UNL1       -0.1528
     12 O         138.0609  143.2022  160.6012 O.2     1  UNL1       -0.1528
     13 C         139.6211  143.5960  159.2191 C.ar    1  UNL1        0.1222
     14 C         140.2627  144.9465  159.3399 C.ar    1  UNL1        0.0199
     15 C         140.4111  145.8174  158.1277 C.ar    1  UNL1        0.0052
     16 C         139.9180  145.3379  156.7947 C.ar    1  UNL1        0.0715
     17 C         139.2764  143.9874  156.6739 C.ar    1  UNL1        0.0052
     18 C         139.1280  143.1164  157.8861 C.ar    1  UNL1        0.0199
     19 C         140.0664  146.2088  155.5825 C.3     1  UNL1        0.4186
     20 F         140.2148  147.0798  154.3703 F       1  UNL1       -0.1659
     21 F         138.6219  146.5994  155.6863 F       1  UNL1       -0.1659
     22 F         141.5110  145.8182  155.4788 F       1  UNL1       -0.1659
     23 C         139.5922  140.4378  168.4184 C.2     1  UNL1        0.0598
     24 C         138.8801  139.4512  167.5414 C.2     1  UNL1        0.0047
     25 O         138.3043  139.7754  170.5753 O.2     1  UNL1       -0.2681
     26 C         139.5487  140.2837  169.9099 C.2     1  UNL1        0.2679
     27 N         140.7497  140.6380  170.7358 N.am    1  UNL1       -0.1934
     28 O         140.7062  140.4839  172.2273 O.3     1  UNL1       -0.2949
     29 H         141.5665  140.9717  170.2991 H       1  UNL1        0.1825
     30 H         139.8360  140.1470  172.4922 H       1  UNL1        0.2414
@<TRIPOS>BOND
     1    25    26    2
     2    26    23    1
     3    23    24    2
     4    24     1    1
     5     1     2   ar
     6     2     3   ar
     7     3     4   ar
     8     4     5   ar
     9     5     6   ar
    10     5     7    1
    11     7     8    1
    12     8    10    1
    13    10    11    2
    14    10    12    2
    15    10    13    1
    16    13    14   ar
    17    14    15   ar
    18    15    16   ar
    19    16    19    1
    20    19    20    1
    21    19    21    1
    22    19    22    1
    23    16    17   ar
    24    17    18   ar
    25     8     9    1
    26    26    27   am
    27    27    28    1
    28     6     1   ar
    29    18    13   ar
    30     9     4    1
    31    27    29    1
    32    28    30    1
@<TRIPOS>MOLECULE
*****
 30 32 0 0 0
SMALL
GASTEIGER

@<TRIPOS>ATOM
      1 C         140.2944  143.1621  166.2354 C.ar    1  UNL1       -0.0001
      2 C         139.1719  144.1489  166.1078 C.ar    1  UNL1       -0.0003
      3 C         138.9037  144.8136  164.7902 C.ar    1  UNL1       -0.0031
      4 C         139.7580  144.4915  163.6000 C.ar    1  UNL1       -0.0071
      5 C         140.8804  143.5047  163.7275 C.ar    1  UNL1       -0.0071
      6 C         141.1486  142.8400  165.0452 C.ar    1  UNL1       -0.0031
      7 C         141.5491  143.3878  162.3899 C.3     1  UNL1        0.1222
      8 N         140.8399  144.3024  161.4357 N.3     1  UNL1       -0.1466
      9 C         139.7329  144.9845  162.1836 C.3     1  UNL1        0.1222
     10 S         141.1783  144.5001  159.9877 S.O2    1  UNL1        0.0639
     11 O         142.6345  144.3293  160.3047 O.2     1  UNL1       -0.1528
     12 O         139.7221  144.6710  159.6709 O.2     1  UNL1       -0.1528
     13 C         141.5165  144.6979  158.5399 C.ar    1  UNL1        0.1222
     14 C         140.9058  145.8349  157.7755 C.ar    1  UNL1        0.0199
     15 C         141.2441  146.0327  156.3276 C.ar    1  UNL1        0.0052
     16 C         142.1932  145.0935  155.6440 C.ar    1  UNL1        0.0715
     17 C         142.8039  143.9565  156.4084 C.ar    1  UNL1        0.0052
     18 C         142.4655  143.7587  157.8563 C.ar    1  UNL1        0.0199
     19 C         142.5314  145.2913  154.1961 C.3     1  UNL1        0.4186
     20 F         142.8697  145.4891  152.7483 F       1  UNL1       -0.1659
     21 F         141.3358  146.1833  154.0387 F       1  UNL1       -0.1659
     22 F         143.7271  144.3992  154.3537 F       1  UNL1       -0.1659
     23 C         140.3647  143.2579  168.8307 C.2     1  UNL1        0.0598
     24 C         140.5626  142.4974  167.5530 C.2     1  UNL1        0.0047
     25 O         139.6192  141.6566  170.7360 O.2     1  UNL1       -0.2681
     26 C         140.6329  142.5932  170.1484 C.2     1  UNL1        0.2679
     27 N         141.9148  142.8651  170.8784 N.am    1  UNL1       -0.1934
     28 O         142.1830  142.2004  172.1961 O.3     1  UNL1       -0.2949
     29 H         142.5801  143.4798  170.4927 H       1  UNL1        0.1825
     30 H         141.4327  141.6318  172.4300 H       1  UNL1        0.2414
@<TRIPOS>BOND
     1    25    26    2
     2    26    23    1
     3    23    24    2
     4    24     1    1
     5     1     2   ar
     6     2     3   ar
     7     3     4   ar
     8     4     5   ar
     9     5     6   ar
    10     5     7    1
    11     7     8    1
    12     8    10    1
    13    10    11    2
    14    10    12    2
    15    10    13    1
    16    13    14   ar
    17    14    15   ar
    18    15    16   ar
    19    16    19    1
    20    19    20    1
    21    19    21    1
    22    19    22    1
    23    16    17   ar
    24    17    18   ar
    25     8     9    1
    26    26    27   am
    27    27    28    1
    28     6     1   ar
    29    18    13   ar
    30     9     4    1
    31    27    29    1
    32    28    30    1
@<TRIPOS>MOLECULE
*****
 30 32 0 0 0
SMALL
GASTEIGER

@<TRIPOS>ATOM
      1 C         141.5888  142.3165  166.7877 C.ar    1  UNL1       -0.0001
      2 C         140.2589  142.9980  166.9181 C.ar    1  UNL1       -0.0003
      3 C         139.6465  143.6809  165.7312 C.ar    1  UNL1       -0.0031
      4 C         140.3640  143.6823  164.4140 C.ar    1  UNL1       -0.0071
      5 C         141.6939  143.0009  164.2836 C.ar    1  UNL1       -0.0071
      6 C         142.3063  142.3180  165.4705 C.ar    1  UNL1       -0.0031
      7 C         142.1626  143.1661  162.8683 C.3     1  UNL1        0.1222
      8 N         141.1224  143.9496  162.1240 N.3     1  UNL1       -0.1466
      9 C         140.0108  144.2687  163.0793 C.3     1  UNL1        0.1222
     10 S         141.1830  144.3448  160.6782 S.O2    1  UNL1        0.0639
     11 O         139.6845  144.3305  160.6114 O.2     1  UNL1       -0.1528
     12 O         142.6815  144.3590  160.7450 O.2     1  UNL1       -0.1528
     13 C         141.2438  144.7399  159.2325 C.ar    1  UNL1        0.1222
     14 C         142.3040  144.1639  158.3414 C.ar    1  UNL1        0.0199
     15 C         142.3647  144.5590  156.8957 C.ar    1  UNL1        0.0052
     16 C         141.3651  145.5302  156.3410 C.ar    1  UNL1        0.0715
     17 C         140.3049  146.1062  157.2320 C.ar    1  UNL1        0.0052
     18 C         140.2442  145.7110  158.6778 C.ar    1  UNL1        0.0199
     19 C         141.4259  145.9253  154.8952 C.3     1  UNL1        0.4186
     20 F         141.4866  146.3204  153.4495 F       1  UNL1       -0.1659
     21 F         140.2070  146.7803  155.0777 F       1  UNL1       -0.1659
     22 F         142.6448  145.0703  154.7128 F       1  UNL1       -0.1659
     23 C         141.5981  141.8121  169.3363 C.2     1  UNL1        0.0598
     24 C         142.2012  141.6336  167.9745 C.2     1  UNL1        0.0047
     25 O         141.6191  141.3233  171.8879 O.2     1  UNL1       -0.2681
     26 C         142.2105  141.1292  170.5232 C.2     1  UNL1        0.2679
     27 N         143.4144  140.2522  170.3452 N.am    1  UNL1       -0.1934
     28 O         144.0268  139.5693  171.5321 O.3     1  UNL1       -0.2949
     29 H         143.8026  140.1248  169.4495 H       1  UNL1        0.1825
     30 H         143.5268  139.7991  172.3309 H       1  UNL1        0.2414
@<TRIPOS>BOND
     1    25    26    2
     2    26    23    1
     3    23    24    2
     4    24     1    1
     5     1     2   ar
     6     2     3   ar
     7     3     4   ar
     8     4     5   ar
     9     5     6   ar
    10     5     7    1
    11     7     8    1
    12     8    10    1
    13    10    11    2
    14    10    12    2
    15    10    13    1
    16    13    14   ar
    17    14    15   ar
    18    15    16   ar
    19    16    19    1
    20    19    20    1
    21    19    21    1
    22    19    22    1
    23    16    17   ar
    24    17    18   ar
    25     8     9    1
    26    26    27   am
    27    27    28    1
    28     6     1   ar
    29    18    13   ar
    30     9     4    1
    31    27    29    1
    32    28    30    1
@<TRIPOS>MOLECULE
*****
 30 32 0 0 0
SMALL
GASTEIGER

@<TRIPOS>ATOM
      1 C         141.4329  142.1352  166.8247 C.ar    1  UNL1       -0.0001
      2 C         142.9196  142.3139  166.7362 C.ar    1  UNL1       -0.0003
      3 C         143.5403  142.8172  165.4668 C.ar    1  UNL1       -0.0031
      4 C         142.6743  143.1419  164.2859 C.ar    1  UNL1       -0.0071
      5 C         141.1876  142.9632  164.3744 C.ar    1  UNL1       -0.0071
      6 C         140.5669  142.4598  165.6438 C.ar    1  UNL1       -0.0031
      7 C         140.5934  143.3626  163.0562 C.3     1  UNL1        0.1222
      8 N         141.7129  143.7882  162.1531 N.3     1  UNL1       -0.1466
      9 C         142.9989  143.6517  162.9131 C.3     1  UNL1        0.1222
     10 S         141.5713  144.2662  160.7383 S.O2    1  UNL1        0.0639
     11 O         140.1276  144.5861  160.9909 O.2     1  UNL1       -0.1528
     12 O         143.0148  143.9464  160.4858 O.2     1  UNL1       -0.1528
     13 C         141.4297  144.7443  159.3237 C.ar    1  UNL1        0.1222
     14 C         142.4363  144.3353  158.2895 C.ar    1  UNL1        0.0199
     15 C         142.2947  144.8133  156.8748 C.ar    1  UNL1        0.0052
     16 C         141.1465  145.7004  156.4942 C.ar    1  UNL1        0.0715
     17 C         140.1399  146.1094  157.5284 C.ar    1  UNL1        0.0052
     18 C         140.2815  145.6313  158.9431 C.ar    1  UNL1        0.0199
     19 C         141.0049  146.1784  155.0795 C.3     1  UNL1        0.4186
     20 F         140.8634  146.6565  153.6648 F       1  UNL1       -0.1659
     21 F         140.0552  147.2462  155.5354 F       1  UNL1       -0.1659
     22 F         141.9547  145.1105  154.6237 F       1  UNL1       -0.1659
     23 C         141.6761  141.3273  169.2820 C.2     1  UNL1        0.0598
     24 C         140.8123  141.6318  168.0941 C.2     1  UNL1        0.0047
     25 O         141.2618  141.5719  171.8351 O.2     1  UNL1       -0.2681
     26 C         141.0554  140.8240  170.5514 C.2     1  UNL1        0.2679
     27 N         140.2284  139.5726  170.5370 N.am    1  UNL1       -0.1934
     28 O         139.6077  139.0692  171.8065 O.3     1  UNL1       -0.2949
     29 H         140.0929  139.0817  169.6945 H       1  UNL1        0.1825
     30 H         139.8377  139.6645  172.5370 H       1  UNL1        0.2414
@<TRIPOS>BOND
     1    25    26    2
     2    26    23    1
     3    23    24    2
     4    24     1    1
     5     1     2   ar
     6     2     3   ar
     7     3     4   ar
     8     4     5   ar
     9     5     6   ar
    10     5     7    1
    11     7     8    1
    12     8    10    1
    13    10    11    2
    14    10    12    2
    15    10    13    1
    16    13    14   ar
    17    14    15   ar
    18    15    16   ar
    19    16    19    1
    20    19    20    1
    21    19    21    1
    22    19    22    1
    23    16    17   ar
    24    17    18   ar
    25     8     9    1
    26    26    27   am
    27    27    28    1
    28     6     1   ar
    29    18    13   ar
    30     9     4    1
    31    27    29    1
    32    28    30    1
@<TRIPOS>MOLECULE
*****
 30 32 0 0 0
SMALL
GASTEIGER

@<TRIPOS>ATOM
      1 C         139.1176  140.3929  169.6878 C.ar    1  UNL1       -0.0001
      2 C         139.6239  141.7484  170.0831 C.ar    1  UNL1       -0.0003
      3 C         140.3448  142.6011  169.0815 C.ar    1  UNL1       -0.0031
      4 C         140.5594  142.0984  167.6847 C.ar    1  UNL1       -0.0071
      5 C         140.0531  140.7429  167.2894 C.ar    1  UNL1       -0.0071
      6 C         139.3322  139.8901  168.2910 C.ar    1  UNL1       -0.0031
      7 C         140.4103  140.5161  165.8503 C.3     1  UNL1        0.1222
      8 N         141.1374  141.7314  165.3561 N.3     1  UNL1       -0.1466
      9 C         141.2295  142.7094  166.4898 C.3     1  UNL1        0.1222
     10 S         141.6775  141.9335  163.9714 S.O2    1  UNL1        0.0639
     11 O         142.3183  140.5782  164.0235 O.2     1  UNL1       -0.1528
     12 O         141.0368  143.2887  163.9193 O.2     1  UNL1       -0.1528
     13 C         142.2176  142.1356  162.5867 C.ar    1  UNL1        0.1222
     14 C         143.3285  141.2641  162.0803 C.ar    1  UNL1        0.0199
     15 C         143.8686  141.4662  160.6956 C.ar    1  UNL1        0.0052
     16 C         143.2978  142.5399  159.8172 C.ar    1  UNL1        0.0715
     17 C         142.1869  143.4114  160.3236 C.ar    1  UNL1        0.0052
     18 C         141.6468  143.2092  161.7084 C.ar    1  UNL1        0.0199
     19 C         143.8379  142.7420  158.4325 C.3     1  UNL1        0.4186
     20 F         144.3780  142.9440  157.0478 F       1  UNL1       -0.1659
     21 F         144.5405  141.4192  158.5135 F       1  UNL1       -0.1659
     22 F         143.1352  144.0648  158.3516 F       1  UNL1       -0.1659
     23 C         136.9871  139.1013  170.4244 C.2     1  UNL1        0.0598
     24 C         138.3967  139.5402  170.6894 C.2     1  UNL1        0.0047
     25 O         136.6101  136.7945  171.5588 O.2     1  UNL1       -0.2681
     26 C         136.2662  138.2485  171.4260 C.2     1  UNL1        0.2679
     27 N         135.2014  138.8498  172.2948 N.am    1  UNL1       -0.1934
     28 O         134.4806  137.9971  173.2964 O.3     1  UNL1       -0.2949
     29 H         134.9758  139.8042  172.2076 H       1  UNL1        0.1825
     30 H         134.8210  137.0899  173.2532 H       1  UNL1        0.2414
@<TRIPOS>BOND
     1    25    26    2
     2    26    23    1
     3    23    24    2
     4    24     1    1
     5     1     2   ar
     6     2     3   ar
     7     3     4   ar
     8     4     5   ar
     9     5     6   ar
    10     5     7    1
    11     7     8    1
    12     8    10    1
    13    10    11    2
    14    10    12    2
    15    10    13    1
    16    13    14   ar
    17    14    15   ar
    18    15    16   ar
    19    16    19    1
    20    19    20    1
    21    19    21    1
    22    19    22    1
    23    16    17   ar
    24    17    18   ar
    25     8     9    1
    26    26    27   am
    27    27    28    1
    28     6     1   ar
    29    18    13   ar
    30     9     4    1
    31    27    29    1
    32    28    30    1
@<TRIPOS>MOLECULE
*****
 30 32 0 0 0
SMALL
GASTEIGER

@<TRIPOS>ATOM
      1 C         139.9284  139.8575  167.3121 C.ar    1  UNL1       -0.0001
      2 C         138.5599  139.2800  167.1032 C.ar    1  UNL1       -0.0003
      3 C         138.1488  138.7982  165.7435 C.ar    1  UNL1       -0.0031
      4 C         139.1061  138.8938  164.5927 C.ar    1  UNL1       -0.0071
      5 C         140.4746  139.4713  164.8017 C.ar    1  UNL1       -0.0071
      6 C         140.8857  139.9531  166.1614 C.ar    1  UNL1       -0.0031
      7 C         141.1976  139.4376  163.4878 C.3     1  UNL1        0.1222
      8 N         140.2758  138.8394  162.4668 N.3     1  UNL1       -0.1466
      9 C         138.9832  138.5032  163.1497 C.3     1  UNL1        0.1222
     10 S         140.5912  138.6164  161.0173 S.O2    1  UNL1        0.0639
     11 O         141.9742  139.1547  161.2354 O.2     1  UNL1       -0.1528
     12 O         139.2082  138.0780  160.7993 O.2     1  UNL1       -0.1528
     13 C         140.9065  138.3933  159.5679 C.ar    1  UNL1        0.1222
     14 C         142.3271  138.1876  159.1325 C.ar    1  UNL1        0.0199
     15 C         142.6424  137.9646  157.6831 C.ar    1  UNL1        0.0052
     16 C         141.5371  137.9473  156.6691 C.ar    1  UNL1        0.0715
     17 C         140.1165  138.1530  157.1045 C.ar    1  UNL1        0.0052
     18 C         139.8013  138.3760  158.5540 C.ar    1  UNL1        0.0199
     19 C         141.8524  137.7242  155.2197 C.3     1  UNL1        0.4186
     20 F         142.1678  137.5012  153.7703 F       1  UNL1       -0.1659
     21 F         140.5616  136.9785  155.0536 F       1  UNL1       -0.1659
     22 F         143.1433  138.4700  155.3858 F       1  UNL1       -0.1659
     23 C         140.0377  141.7475  169.0915 C.2     1  UNL1        0.0598
     24 C         140.3395  140.3394  168.6718 C.2     1  UNL1        0.0047
     25 O         139.4900  143.0249  171.2865 O.2     1  UNL1       -0.2681
     26 C         140.4488  142.2294  170.4512 C.2     1  UNL1        0.2679
     27 N         141.8188  141.9157  170.9755 N.am    1  UNL1       -0.1934
     28 O         142.2299  142.3975  172.3352 O.3     1  UNL1       -0.2949
     29 H         142.4481  141.3935  170.4272 H       1  UNL1        0.1825
     30 H         141.4988  142.8918  172.7378 H       1  UNL1        0.2414
@<TRIPOS>BOND
     1    25    26    2
     2    26    23    1
     3    23    24    2
     4    24     1    1
     5     1     2   ar
     6     2     3   ar
     7     3     4   ar
     8     4     5   ar
     9     5     6   ar
    10     5     7    1
    11     7     8    1
    12     8    10    1
    13    10    11    2
    14    10    12    2
    15    10    13    1
    16    13    14   ar
    17    14    15   ar
    18    15    16   ar
    19    16    19    1
    20    19    20    1
    21    19    21    1
    22    19    22    1
    23    16    17   ar
    24    17    18   ar
    25     8     9    1
    26    26    27   am
    27    27    28    1
    28     6     1   ar
    29    18    13   ar
    30     9     4    1
    31    27    29    1
    32    28    30    1
@<TRIPOS>MOLECULE
*****
 30 32 0 0 0
SMALL
GASTEIGER

@<TRIPOS>ATOM
      1 C         139.6942  140.8505  166.8809 C.ar    1  UNL1       -0.0001
      2 C         138.8762  139.6018  166.7340 C.ar    1  UNL1       -0.0003
      3 C         138.3216  139.2220  165.3930 C.ar    1  UNL1       -0.0031
      4 C         138.5850  140.0908  164.1990 C.ar    1  UNL1       -0.0071
      5 C         139.4029  141.3395  164.3460 C.ar    1  UNL1       -0.0071
      6 C         139.9575  141.7194  165.6869 C.ar    1  UNL1       -0.0031
      7 C         139.4958  141.9940  162.9994 C.3     1  UNL1        0.1222
      8 N         138.7353  141.1497  162.0203 N.3     1  UNL1       -0.1466
      9 C         138.1723  139.9735  162.7617 C.3     1  UNL1        0.1222
     10 S         138.5671  141.4321  160.5567 S.O2    1  UNL1        0.0639
     11 O         138.2616  142.8672  160.8686 O.2     1  UNL1       -0.1528
     12 O         138.8726  139.9970  160.2448 O.2     1  UNL1       -0.1528
     13 C         138.3990  141.7143  159.0931 C.ar    1  UNL1        0.1222
     14 C         138.9143  142.9979  158.5128 C.ar    1  UNL1        0.0199
     15 C         138.7462  143.2802  157.0493 C.ar    1  UNL1        0.0052
     16 C         138.0627  142.2788  156.1660 C.ar    1  UNL1        0.0715
     17 C         137.5473  140.9952  156.7463 C.ar    1  UNL1        0.0052
     18 C         137.7155  140.7130  158.2099 C.ar    1  UNL1        0.0199
     19 C         137.8945  142.5611  154.7024 C.3     1  UNL1        0.4186
     20 F         137.7264  142.8433  153.2389 F       1  UNL1       -0.1659
     21 F         139.1770  143.3391  154.7051 F       1  UNL1       -0.1659
     22 F         136.6120  141.7830  154.6997 F       1  UNL1       -0.1659
     23 C         140.4232  142.6767  168.5790 C.2     1  UNL1        0.0598
     24 C         140.2488  141.2304  168.2219 C.2     1  UNL1        0.0047
     25 O         140.9622  144.4907  170.3591 O.2     1  UNL1       -0.2681
     26 C         140.9778  143.0566  169.9199 C.2     1  UNL1        0.2679
     27 N         141.5480  142.0022  170.8217 N.am    1  UNL1       -0.1934
     28 O         142.1026  142.3820  172.1627 O.3     1  UNL1       -0.2949
     29 H         141.5583  141.0609  170.5335 H       1  UNL1        0.1825
     30 H         142.0159  143.3399  172.2889 H       1  UNL1        0.2414
@<TRIPOS>BOND
     1    25    26    2
     2    26    23    1
     3    23    24    2
     4    24     1    1
     5     1     2   ar
     6     2     3   ar
     7     3     4   ar
     8     4     5   ar
     9     5     6   ar
    10     5     7    1
    11     7     8    1
    12     8    10    1
    13    10    11    2
    14    10    12    2
    15    10    13    1
    16    13    14   ar
    17    14    15   ar
    18    15    16   ar
    19    16    19    1
    20    19    20    1
    21    19    21    1
    22    19    22    1
    23    16    17   ar
    24    17    18   ar
    25     8     9    1
    26    26    27   am
    27    27    28    1
    28     6     1   ar
    29    18    13   ar
    30     9     4    1
    31    27    29    1
    32    28    30    1
@<TRIPOS>MOLECULE
*****
 30 32 0 0 0
SMALL
GASTEIGER

@<TRIPOS>ATOM
      1 C         139.1921  140.5783  169.2857 C.ar    1  UNL1       -0.0001
      2 C         139.8936  141.8908  169.4735 C.ar    1  UNL1       -0.0003
      3 C         140.7068  142.4732  168.3557 C.ar    1  UNL1       -0.0031
      4 C         140.8184  141.7432  167.0501 C.ar    1  UNL1       -0.0071
      5 C         140.1169  140.4308  166.8623 C.ar    1  UNL1       -0.0071
      6 C         139.3037  139.8483  167.9801 C.ar    1  UNL1       -0.0031
      7 C         140.4079  139.9441  165.4736 C.3     1  UNL1        0.1222
      8 N         141.2893  140.9559  164.8031 N.3     1  UNL1       -0.1466
      9 C         141.5430  142.0678  165.7775 C.3     1  UNL1        0.1222
     10 S         141.8233  140.8707  163.4039 S.O2    1  UNL1        0.0639
     11 O         143.2246  140.8643  163.9391 O.2     1  UNL1       -0.1528
     12 O         140.4220  140.8771  162.8688 O.2     1  UNL1       -0.1528
     13 C         142.3572  140.7856  162.0048 C.ar    1  UNL1        0.1222
     14 C         142.2946  141.9833  161.1039 C.ar    1  UNL1        0.0199
     15 C         142.8285  141.8982  159.7048 C.ar    1  UNL1        0.0052
     16 C         143.4250  140.6152  159.2064 C.ar    1  UNL1        0.0715
     17 C         143.4875  139.4175  160.1072 C.ar    1  UNL1        0.0052
     18 C         142.9536  139.5027  161.5064 C.ar    1  UNL1        0.0199
     19 C         143.9589  140.5301  157.8072 C.3     1  UNL1        0.4186
     20 F         144.4928  140.4449  156.4081 F       1  UNL1       -0.1659
     21 F         145.0956  141.4325  158.1861 F       1  UNL1       -0.1659
     22 F         142.8221  139.6276  157.4284 F       1  UNL1       -0.1659
     23 C         137.2948  139.0033  170.1042 C.2     1  UNL1        0.0598
     24 C         138.3789  139.9958  170.4035 C.2     1  UNL1        0.0047
     25 O         136.4714  136.9381  171.4483 O.2     1  UNL1       -0.2681
     26 C         136.4817  138.4209  171.2220 C.2     1  UNL1        0.2679
     27 N         135.6787  139.3212  172.1135 N.am    1  UNL1       -0.1934
     28 O         134.8656  138.7388  173.2313 O.3     1  UNL1       -0.2949
     29 H         135.6855  140.2944  171.9649 H       1  UNL1        0.1825
     30 H         134.9693  137.7744  173.2381 H       1  UNL1        0.2414
@<TRIPOS>BOND
     1    25    26    2
     2    26    23    1
     3    23    24    2
     4    24     1    1
     5     1     2   ar
     6     2     3   ar
     7     3     4   ar
     8     4     5   ar
     9     5     6   ar
    10     5     7    1
    11     7     8    1
    12     8    10    1
    13    10    11    2
    14    10    12    2
    15    10    13    1
    16    13    14   ar
    17    14    15   ar
    18    15    16   ar
    19    16    19    1
    20    19    20    1
    21    19    21    1
    22    19    22    1
    23    16    17   ar
    24    17    18   ar
    25     8     9    1
    26    26    27   am
    27    27    28    1
    28     6     1   ar
    29    18    13   ar
    30     9     4    1
    31    27    29    1
    32    28    30    1
