@<TRIPOS>MOLECULE
*****
 42 48 0 0 0
SMALL
GASTEIGER

@<TRIPOS>ATOM
      1 C         140.3800  140.1855  159.1832 C.3     1  UNL1        0.0000
      2 C         141.6880  140.9198  159.1817 C.3     1  UNL1        0.0001
      3 C         141.5081  140.7052  157.7080 C.3     1  UNL1        0.0000
      4 C         142.9335  141.5796  158.6685 C.3     1  UNL1        0.0005
      5 C         143.9046  142.1990  159.6293 C.3     1  UNL1        0.0087
      6 C         143.6303  142.1586  161.1034 C.3     1  UNL1        0.0709
      7 C         144.6014  142.7779  162.0643 C.3     1  UNL1        0.0088
      8 C         144.3271  142.7375  163.5384 C.3     1  UNL1        0.0027
      9 C         143.0816  142.0777  164.0517 C.3     1  UNL1        0.0251
     10 C         141.8361  141.4179  164.5650 C.3     1  UNL1        0.0023
     11 C         142.8072  142.0373  165.5259 C.3     1  UNL1        0.0174
     12 C         144.0527  142.6971  165.0126 C.3     1  UNL1        0.0041
     13 C         143.7784  142.6567  166.4867 C.3     1  UNL1        0.0038
     14 C         143.5040  142.6162  167.9609 C.3     1  UNL1        0.0014
     15 C         142.2585  141.9565  168.4742 C.3     1  UNL1        0.0141
     16 C         141.9842  141.9160  169.9483 C.3     1  UNL1        0.0568
     17 C         142.1641  142.1307  171.4219 C.3     1  UNL1        0.0077
     18 C         143.2922  142.6504  169.9468 C.3     1  UNL1        0.0077
     19 C         140.7387  141.2562  170.4616 C.2     1  UNL1        0.1815
     20 O         140.4643  141.2158  171.9357 O.2     1  UNL1       -0.2907
     21 C         139.7675  140.6369  169.5007 C.2     1  UNL1        0.0990
     22 C         140.0419  140.6773  168.0265 C.2     1  UNL1       -0.0098
     23 C         141.2874  141.3371  167.5133 C.3     1  UNL1        0.0349
     24 C         140.3162  140.7177  166.5524 C.3     1  UNL1        0.0085
     25 C         141.5617  141.3775  166.0392 C.2     1  UNL1       -0.0387
     26 C         140.5906  140.7581  165.0783 C.2     1  UNL1        0.0309
     27 C         140.8650  140.7986  163.6041 C.2     1  UNL1        0.1884
     28 O         140.1074  140.3401  163.1746 O.2     1  UNL1       -0.2897
     29 C         142.1104  141.4583  163.0909 C.3     1  UNL1        0.1159
     30 C         142.3848  141.4988  161.6167 C.3     1  UNL1        0.0319
     31 C         141.4137  140.8794  160.6558 C.3     1  UNL1        0.0025
     32 N         141.4580  140.9942  161.8225 N.am    1  UNL1       -0.2777
     33 C         142.3354  141.3985  160.6750 C.2     1  UNL1        0.2249
     34 O         141.9979  141.1488  159.8952 O.2     1  UNL1       -0.2749
     35 C         140.1566  140.2555  161.7195 C.3     1  UNL1        0.0756
     36 C         140.1398  138.7562  161.7610 C.3     1  UNL1        0.0198
     37 C         138.8383  138.0175  161.6580 C.3     1  UNL1        0.0017
     38 C         137.5536  138.7782  161.5135 C.3     1  UNL1        0.0001
     39 C         137.5704  140.2776  161.4721 C.3     1  UNL1        0.0017
     40 C         138.8718  141.0162  161.5751 C.3     1  UNL1        0.0198
     41 C         138.5221  139.9771  170.0140 C.1     1  UNL1        0.1030
     42 N         137.2766  139.3173  170.5272 N.1     1  UNL1       -0.1907
@<TRIPOS>BOND
     1     1     2    1
     2     2     3    1
     3     2     4    1
     4     4     5    1
     5     6     5    1
     6     6     7    1
     7     7     8    1
     8     8     9    1
     9     9    10    1
    10     9    11    1
    11    11    12    1
    12    11    13    1
    13    13    14    1
    14    15    14    1
    15    15    16    1
    16    16    17    1
    17    16    18    1
    18    16    19    1
    19    19    20    2
    20    19    21    1
    21    21    41    1
    22    41    42    3
    23    21    22    2
    24    22    23    1
    25    23    24    1
    26    23    25    1
    27    25    26    2
    28    26    27    1
    29    27    28    2
    30    27    29    1
    31    29    30    1
    32    30    31    1
    33    29    32    1
    34    32    35    1
    35    35    36    1
    36    36    37    1
    37    37    38    1
    38    38    39    1
    39    39    40    1
    40    32    33   am
    41    33    34    2
    42    31     2    1
    43    40    35    1
    44    30     6    1
    45    33     6    1
    46    29     9    1
    47    25    11    1
    48    23    15    1
@<TRIPOS>MOLECULE
*****
 42 48 0 0 0
SMALL
GASTEIGER

@<TRIPOS>ATOM
      1 C         140.9516  142.8132  159.2317 C.3     1  UNL1        0.0000
      2 C         141.6153  141.4682  159.2067 C.3     1  UNL1        0.0001
      3 C         141.4892  141.7238  157.7340 C.3     1  UNL1        0.0000
      4 C         142.2353  140.2121  158.6703 C.3     1  UNL1        0.0005
      5 C         142.7508  139.1674  159.6153 C.3     1  UNL1        0.0087
      6 C         142.6465  139.3789  161.0966 C.3     1  UNL1        0.0709
      7 C         143.1620  138.3342  162.0415 C.3     1  UNL1        0.0088
      8 C         143.0577  138.5457  163.5228 C.3     1  UNL1        0.0027
      9 C         142.4377  139.8019  164.0593 C.3     1  UNL1        0.0251
     10 C         141.8178  141.0580  164.5957 C.3     1  UNL1        0.0023
     11 C         142.3334  140.0133  165.5406 C.3     1  UNL1        0.0174
     12 C         142.9533  138.7572  165.0042 C.3     1  UNL1        0.0041
     13 C         142.8490  138.9687  166.4855 C.3     1  UNL1        0.0038
     14 C         142.7446  139.1802  167.9669 C.3     1  UNL1        0.0014
     15 C         142.1247  140.4363  168.5033 C.3     1  UNL1        0.0141
     16 C         142.0203  140.6478  169.9846 C.3     1  UNL1        0.0568
     17 C         142.1465  140.3921  171.4573 C.3     1  UNL1        0.0077
     18 C         142.6841  139.3028  169.9596 C.3     1  UNL1        0.0077
     19 C         141.4003  141.9040  170.5211 C.2     1  UNL1        0.1815
     20 O         141.2960  142.1154  172.0024 O.2     1  UNL1       -0.2907
     21 C         140.8848  142.9486  169.5762 C.2     1  UNL1        0.0990
     22 C         140.9892  142.7371  168.0948 C.2     1  UNL1       -0.0098
     23 C         141.6091  141.4810  167.5584 C.3     1  UNL1        0.0349
     24 C         141.0935  142.5256  166.6135 C.3     1  UNL1        0.0085
     25 C         141.7134  141.2695  166.0771 C.2     1  UNL1       -0.0387
     26 C         141.1979  142.3142  165.1322 C.2     1  UNL1        0.0309
     27 C         141.3023  142.1027  163.6508 C.2     1  UNL1        0.1884
     28 O         140.9076  142.9023  163.2342 O.2     1  UNL1       -0.2897
     29 C         141.9222  140.8465  163.1144 C.3     1  UNL1        0.1159
     30 C         142.0266  140.6350  161.6330 C.3     1  UNL1        0.0319
     31 C         141.5110  141.6797  160.6881 C.3     1  UNL1        0.0025
     32 N         141.5610  141.5782  161.8557 N.am    1  UNL1       -0.2777
     33 C         141.9792  140.7309  160.6908 C.2     1  UNL1        0.2249
     34 O         141.7895  141.1154  159.9158 O.2     1  UNL1       -0.2749
     35 C         140.8982  142.9214  161.7760 C.3     1  UNL1        0.0756
     36 C         141.7312  144.1629  161.6553 C.3     1  UNL1        0.0198
     37 C         141.0683  145.5062  161.5755 C.3     1  UNL1        0.0017
     38 C         139.5723  145.6078  161.6165 C.3     1  UNL1        0.0001
     39 C         138.7392  144.3662  161.7372 C.3     1  UNL1        0.0017
     40 C         139.4022  143.0230  161.8169 C.3     1  UNL1        0.0198
     41 C         140.2649  144.2048  170.1126 C.1     1  UNL1        0.1030
     42 N         139.6449  145.4609  170.6490 N.1     1  UNL1       -0.1907
@<TRIPOS>BOND
     1     1     2    1
     2     2     3    1
     3     2     4    1
     4     4     5    1
     5     6     5    1
     6     6     7    1
     7     7     8    1
     8     8     9    1
     9     9    10    1
    10     9    11    1
    11    11    12    1
    12    11    13    1
    13    13    14    1
    14    15    14    1
    15    15    16    1
    16    16    17    1
    17    16    18    1
    18    16    19    1
    19    19    20    2
    20    19    21    1
    21    21    41    1
    22    41    42    3
    23    21    22    2
    24    22    23    1
    25    23    24    1
    26    23    25    1
    27    25    26    2
    28    26    27    1
    29    27    28    2
    30    27    29    1
    31    29    30    1
    32    30    31    1
    33    29    32    1
    34    32    35    1
    35    35    36    1
    36    36    37    1
    37    37    38    1
    38    38    39    1
    39    39    40    1
    40    32    33   am
    41    33    34    2
    42    31     2    1
    43    40    35    1
    44    30     6    1
    45    33     6    1
    46    29     9    1
    47    25    11    1
    48    23    15    1
@<TRIPOS>MOLECULE
*****
 42 48 0 0 0
SMALL
GASTEIGER

@<TRIPOS>ATOM
      1 C         142.0611  140.4843  159.0625 C.3     1  UNL1        0.0000
      2 C         141.3050  141.7792  159.1038 C.3     1  UNL1        0.0001
      3 C         141.4469  141.6076  157.6204 C.3     1  UNL1        0.0000
      4 C         140.5982  143.0144  158.6300 C.3     1  UNL1        0.0005
      5 C         140.0120  143.9715  159.6252 C.3     1  UNL1        0.0087
      6 C         140.1327  143.6934  161.0942 C.3     1  UNL1        0.0709
      7 C         139.5465  144.6505  162.0894 C.3     1  UNL1        0.0088
      8 C         139.6672  144.3723  163.5584 C.3     1  UNL1        0.0027
      9 C         140.3740  143.1370  164.0323 C.3     1  UNL1        0.0251
     10 C         141.0808  141.9018  164.5061 C.3     1  UNL1        0.0023
     11 C         140.4946  142.8589  165.5013 C.3     1  UNL1        0.0174
     12 C         139.7878  144.0941  165.0275 C.3     1  UNL1        0.0041
     13 C         139.9085  143.8160  166.4965 C.3     1  UNL1        0.0038
     14 C         140.0292  143.5378  167.9656 C.3     1  UNL1        0.0014
     15 C         140.7360  142.3025  168.4394 C.3     1  UNL1        0.0141
     16 C         140.8566  142.0244  169.9084 C.3     1  UNL1        0.0568
     17 C         140.7146  142.1959  171.3918 C.3     1  UNL1        0.0077
     18 C         140.1005  143.3192  169.9497 C.3     1  UNL1        0.0077
     19 C         141.5634  140.7891  170.3823 C.2     1  UNL1        0.1815
     20 O         141.6841  140.5109  171.8513 O.2     1  UNL1       -0.2907
     21 C         142.1496  139.8320  169.3871 C.2     1  UNL1        0.0990
     22 C         142.0289  140.1102  167.9180 C.2     1  UNL1       -0.0098
     23 C         141.3221  141.3454  167.4442 C.3     1  UNL1        0.0349
     24 C         141.9083  140.3883  166.4490 C.3     1  UNL1        0.0085
     25 C         141.2015  141.6236  165.9752 C.2     1  UNL1       -0.0387
     26 C         141.7876  140.6665  164.9800 C.2     1  UNL1        0.0309
     27 C         141.6669  140.9447  163.5109 C.2     1  UNL1        0.1884
     28 O         142.1160  140.1966  163.0555 O.2     1  UNL1       -0.2897
     29 C         140.9602  142.1799  163.0371 C.3     1  UNL1        0.1159
     30 C         140.8395  142.4581  161.5680 C.3     1  UNL1        0.0319
     31 C         141.4256  141.5010  160.5729 C.3     1  UNL1        0.0025
     32 N         141.3700  141.5396  161.7440 N.am    1  UNL1       -0.2777
     33 C         140.8923  142.4134  160.6223 C.2     1  UNL1        0.2249
     34 O         141.1075  142.0827  159.8293 O.2     1  UNL1       -0.2749
     35 C         142.1250  140.2518  161.5982 C.3     1  UNL1        0.0756
     36 C         141.3809  138.9531  161.5005 C.3     1  UNL1        0.0198
     37 C         142.1359  137.6651  161.3547 C.3     1  UNL1        0.0017
     38 C         143.6351  137.6760  161.3065 C.3     1  UNL1        0.0001
     39 C         144.3793  138.9748  161.4042 C.3     1  UNL1        0.0017
     40 C         143.6242  140.2627  161.5500 C.3     1  UNL1        0.0198
     41 C         142.8564  138.5967  169.8609 C.1     1  UNL1        0.1030
     42 N         143.5632  137.3615  170.3348 N.1     1  UNL1       -0.1907
@<TRIPOS>BOND
     1     1     2    1
     2     2     3    1
     3     2     4    1
     4     4     5    1
     5     6     5    1
     6     6     7    1
     7     7     8    1
     8     8     9    1
     9     9    10    1
    10     9    11    1
    11    11    12    1
    12    11    13    1
    13    13    14    1
    14    15    14    1
    15    15    16    1
    16    16    17    1
    17    16    18    1
    18    16    19    1
    19    19    20    2
    20    19    21    1
    21    21    41    1
    22    41    42    3
    23    21    22    2
    24    22    23    1
    25    23    24    1
    26    23    25    1
    27    25    26    2
    28    26    27    1
    29    27    28    2
    30    27    29    1
    31    29    30    1
    32    30    31    1
    33    29    32    1
    34    32    35    1
    35    35    36    1
    36    36    37    1
    37    37    38    1
    38    38    39    1
    39    39    40    1
    40    32    33   am
    41    33    34    2
    42    31     2    1
    43    40    35    1
    44    30     6    1
    45    33     6    1
    46    29     9    1
    47    25    11    1
    48    23    15    1
@<TRIPOS>MOLECULE
*****
 42 48 0 0 0
SMALL
GASTEIGER

@<TRIPOS>ATOM
      1 C         142.0257  141.2256  159.0750 C.3     1  UNL1        0.0000
      2 C         140.7106  140.5099  159.1656 C.3     1  UNL1        0.0001
      3 C         140.8775  140.5605  157.6757 C.3     1  UNL1        0.0000
      4 C         139.4535  139.8117  158.7388 C.3     1  UNL1        0.0005
      5 C         138.4861  139.3115  159.7703 C.3     1  UNL1        0.0087
      6 C         138.7759  139.5095  161.2286 C.3     1  UNL1        0.0709
      7 C         137.8085  139.0093  162.2602 C.3     1  UNL1        0.0088
      8 C         138.0983  139.2073  163.7185 C.3     1  UNL1        0.0027
      9 C         139.3554  139.9055  164.1454 C.3     1  UNL1        0.0251
     10 C         140.6125  140.6036  164.5722 C.3     1  UNL1        0.0023
     11 C         139.6452  140.1035  165.6037 C.3     1  UNL1        0.0174
     12 C         138.3881  139.4053  165.1769 C.3     1  UNL1        0.0041
     13 C         138.6778  139.6033  166.6353 C.3     1  UNL1        0.0038
     14 C         138.9676  139.8013  168.0937 C.3     1  UNL1        0.0014
     15 C         140.2247  140.4994  168.5205 C.3     1  UNL1        0.0141
     16 C         140.5145  140.6974  169.9788 C.3     1  UNL1        0.0568
     17 C         140.3475  140.6468  171.4687 C.3     1  UNL1        0.0077
     18 C         139.1993  139.9816  170.0694 C.3     1  UNL1        0.0077
     19 C         141.7716  141.3956  170.4057 C.2     1  UNL1        0.1815
     20 O         142.0614  141.5936  171.8641 O.2     1  UNL1       -0.2907
     21 C         142.7390  141.8958  169.3742 C.2     1  UNL1        0.0990
     22 C         142.4492  141.6978  167.9158 C.2     1  UNL1       -0.0098
     23 C         141.1921  140.9996  167.4890 C.3     1  UNL1        0.0349
     24 C         142.1594  141.4998  166.4574 C.3     1  UNL1        0.0085
     25 C         140.9023  140.8016  166.0306 C.2     1  UNL1       -0.0387
     26 C         141.8697  141.3018  164.9991 C.2     1  UNL1        0.0309
     27 C         141.5799  141.1038  163.5407 C.2     1  UNL1        0.1884
     28 O         142.3375  141.5044  163.0569 O.2     1  UNL1       -0.2897
     29 C         140.3228  140.4057  163.1139 C.3     1  UNL1        0.1159
     30 C         140.0330  140.2077  161.6555 C.3     1  UNL1        0.0319
     31 C         141.0003  140.7079  160.6239 C.3     1  UNL1        0.0025
     32 N         140.9668  140.7215  161.7965 N.am    1  UNL1       -0.2777
     33 C         140.0737  140.2041  160.7081 C.2     1  UNL1        0.2249
     34 O         140.4058  140.3635  159.9026 O.2     1  UNL1       -0.2749
     35 C         142.2743  141.4303  161.6017 C.3     1  UNL1        0.0756
     36 C         143.5502  140.6446  161.5321 C.3     1  UNL1        0.0198
     37 C         144.8578  141.3535  161.3373 C.3     1  UNL1        0.0017
     38 C         144.8894  142.8479  161.2121 C.3     1  UNL1        0.0001
     39 C         143.6134  143.6335  161.2817 C.3     1  UNL1        0.0017
     40 C         142.3059  142.9247  161.4765 C.3     1  UNL1        0.0198
     41 C         143.9961  142.5939  169.8010 C.1     1  UNL1        0.1030
     42 N         145.2532  143.2921  170.2278 N.1     1  UNL1       -0.1907
@<TRIPOS>BOND
     1     1     2    1
     2     2     3    1
     3     2     4    1
     4     4     5    1
     5     6     5    1
     6     6     7    1
     7     7     8    1
     8     8     9    1
     9     9    10    1
    10     9    11    1
    11    11    12    1
    12    11    13    1
    13    13    14    1
    14    15    14    1
    15    15    16    1
    16    16    17    1
    17    16    18    1
    18    16    19    1
    19    19    20    2
    20    19    21    1
    21    21    41    1
    22    41    42    3
    23    21    22    2
    24    22    23    1
    25    23    24    1
    26    23    25    1
    27    25    26    2
    28    26    27    1
    29    27    28    2
    30    27    29    1
    31    29    30    1
    32    30    31    1
    33    29    32    1
    34    32    35    1
    35    35    36    1
    36    36    37    1
    37    37    38    1
    38    38    39    1
    39    39    40    1
    40    32    33   am
    41    33    34    2
    42    31     2    1
    43    40    35    1
    44    30     6    1
    45    33     6    1
    46    29     9    1
    47    25    11    1
    48    23    15    1
@<TRIPOS>MOLECULE
*****
 42 48 0 0 0
SMALL
GASTEIGER

@<TRIPOS>ATOM
      1 C         141.2912  139.6942  167.0057 C.3     1  UNL1        0.0000
      2 C         142.2467  140.8506  167.0020 C.3     1  UNL1        0.0001
      3 C         142.5410  140.2740  168.3551 C.3     1  UNL1        0.0000
      4 C         143.3043  141.8067  167.4681 C.3     1  UNL1        0.0005
      5 C         143.7358  142.9378  166.5825 C.3     1  UNL1        0.0087
      6 C         143.1097  143.1129  165.2307 C.3     1  UNL1        0.0709
      7 C         143.5412  144.2440  164.3451 C.3     1  UNL1        0.0088
      8 C         142.9151  144.4191  162.9933 C.3     1  UNL1        0.0027
      9 C         141.8575  143.4630  162.5271 C.3     1  UNL1        0.0251
     10 C         140.7998  142.5069  162.0610 C.3     1  UNL1        0.0023
     11 C         141.2314  143.6380  161.1753 C.3     1  UNL1        0.0174
     12 C         142.2890  144.5941  161.6415 C.3     1  UNL1        0.0041
     13 C         141.6629  144.7692  160.2897 C.3     1  UNL1        0.0038
     14 C         141.0367  144.9442  158.9379 C.3     1  UNL1        0.0014
     15 C         139.9791  143.9881  158.4717 C.3     1  UNL1        0.0141
     16 C         139.3530  144.1632  157.1200 C.3     1  UNL1        0.0568
     17 C         139.0587  144.7398  155.7668 C.3     1  UNL1        0.0077
     18 C         140.3085  145.3195  157.1162 C.3     1  UNL1        0.0077
     19 C         138.2954  143.2071  156.6538 C.2     1  UNL1        0.1815
     20 O         137.6693  143.3821  155.3020 O.2     1  UNL1       -0.2907
     21 C         137.8638  142.0759  157.5394 C.2     1  UNL1        0.0990
     22 C         138.4900  141.9009  158.8912 C.2     1  UNL1       -0.0098
     23 C         139.5476  142.8570  159.3574 C.3     1  UNL1        0.0349
     24 C         139.1161  141.7258  160.2430 C.3     1  UNL1        0.0085
     25 C         140.1737  142.6819  160.7091 C.2     1  UNL1       -0.0387
     26 C         139.7422  141.5508  161.5948 C.2     1  UNL1        0.0309
     27 C         140.3683  141.3758  162.9466 C.2     1  UNL1        0.1884
     28 O         139.9393  140.5841  163.3437 O.2     1  UNL1       -0.2897
     29 C         141.4259  142.3318  163.4127 C.3     1  UNL1        0.1159
     30 C         142.0521  142.1568  164.7646 C.3     1  UNL1        0.0319
     31 C         141.6206  141.0257  165.6502 C.3     1  UNL1        0.0025
     32 N         141.3159  141.3954  164.5793 N.am    1  UNL1       -0.2777
     33 C         142.2880  141.8463  165.6289 C.2     1  UNL1        0.2249
     34 O         142.2668  141.3268  166.3460 O.2     1  UNL1       -0.2749
     35 C         140.3955  140.2153  164.6789 C.3     1  UNL1        0.0756
     36 C         139.0306  140.3772  165.2796 C.3     1  UNL1        0.0198
     37 C         138.1101  139.1970  165.3792 C.3     1  UNL1        0.0017
     38 C         138.5545  137.8548  164.8781 C.3     1  UNL1        0.0001
     39 C         139.9195  137.6929  164.2773 C.3     1  UNL1        0.0017
     40 C         140.8399  138.8731  164.1778 C.3     1  UNL1        0.0198
     41 C         136.8062  141.1198  157.0732 C.1     1  UNL1        0.1030
     42 N         135.7486  140.1638  156.6071 N.1     1  UNL1       -0.1907
@<TRIPOS>BOND
     1     1     2    1
     2     2     3    1
     3     2     4    1
     4     4     5    1
     5     6     5    1
     6     6     7    1
     7     7     8    1
     8     8     9    1
     9     9    10    1
    10     9    11    1
    11    11    12    1
    12    11    13    1
    13    13    14    1
    14    15    14    1
    15    15    16    1
    16    16    17    1
    17    16    18    1
    18    16    19    1
    19    19    20    2
    20    19    21    1
    21    21    41    1
    22    41    42    3
    23    21    22    2
    24    22    23    1
    25    23    24    1
    26    23    25    1
    27    25    26    2
    28    26    27    1
    29    27    28    2
    30    27    29    1
    31    29    30    1
    32    30    31    1
    33    29    32    1
    34    32    35    1
    35    35    36    1
    36    36    37    1
    37    37    38    1
    38    38    39    1
    39    39    40    1
    40    32    33   am
    41    33    34    2
    42    31     2    1
    43    40    35    1
    44    30     6    1
    45    33     6    1
    46    29     9    1
    47    25    11    1
    48    23    15    1
@<TRIPOS>MOLECULE
*****
 42 48 0 0 0
SMALL
GASTEIGER

@<TRIPOS>ATOM
      1 C         139.9781  141.4503  166.5866 C.3     1  UNL1        0.0000
      2 C         141.0883  140.4676  166.3585 C.3     1  UNL1        0.0001
      3 C         140.7255  140.1269  167.7736 C.3     1  UNL1        0.0000
      4 C         142.0724  139.3666  166.6219 C.3     1  UNL1        0.0005
      5 C         143.0337  138.9476  165.5494 C.3     1  UNL1        0.0087
      6 C         143.0110  139.6294  164.2136 C.3     1  UNL1        0.0709
      7 C         143.9723  139.2104  163.1411 C.3     1  UNL1        0.0088
      8 C         143.9496  139.8923  161.8053 C.3     1  UNL1        0.0027
      9 C         142.9655  140.9933  161.5419 C.3     1  UNL1        0.0251
     10 C         141.9814  142.0942  161.2785 C.3     1  UNL1        0.0023
     11 C         142.9427  141.6752  160.2061 C.3     1  UNL1        0.0174
     12 C         143.9268  140.5742  160.4694 C.3     1  UNL1        0.0041
     13 C         143.9041  141.2561  159.1336 C.3     1  UNL1        0.0038
     14 C         143.8813  141.9380  157.7977 C.3     1  UNL1        0.0014
     15 C         142.8972  143.0390  157.5344 C.3     1  UNL1        0.0141
     16 C         142.8745  143.7209  156.1985 C.3     1  UNL1        0.0568
     17 C         143.2373  144.0615  154.7835 C.3     1  UNL1        0.0077
     18 C         143.9846  142.7382  155.9705 C.3     1  UNL1        0.0077
     19 C         141.8903  144.8219  155.9351 C.2     1  UNL1        0.1815
     20 O         141.8676  145.5038  154.5993 O.2     1  UNL1       -0.2907
     21 C         140.9290  145.2410  157.0076 C.2     1  UNL1        0.0990
     22 C         140.9518  144.5590  158.3435 C.2     1  UNL1       -0.0098
     23 C         141.9358  143.4581  158.6068 C.3     1  UNL1        0.0349
     24 C         140.9745  143.8771  159.6793 C.3     1  UNL1        0.0085
     25 C         141.9586  142.7762  159.9426 C.2     1  UNL1       -0.0387
     26 C         140.9972  143.1952  161.0151 C.2     1  UNL1        0.0309
     27 C         141.0200  142.5133  162.3510 C.2     1  UNL1        0.1884
     28 O         140.3157  142.9435  162.8871 O.2     1  UNL1       -0.2897
     29 C         142.0041  141.4123  162.6143 C.3     1  UNL1        0.1159
     30 C         142.0269  140.7304  163.9502 C.3     1  UNL1        0.0319
     31 C         141.0655  141.1495  165.0227 C.3     1  UNL1        0.0025
     32 N         141.2694  141.4928  163.9196 N.am    1  UNL1       -0.2777
     33 C         141.8507  140.4635  164.8429 C.2     1  UNL1        0.2249
     34 O         141.4530  140.4652  165.6343 O.2     1  UNL1       -0.2749
     35 C         140.1500  142.4368  164.2446 C.3     1  UNL1        0.0756
     36 C         140.4523  143.7903  164.8161 C.3     1  UNL1        0.0198
     37 C         139.3328  144.7344  165.1411 C.3     1  UNL1        0.0017
     38 C         137.9110  144.3249  164.8945 C.3     1  UNL1        0.0001
     39 C         137.6087  142.9713  164.3229 C.3     1  UNL1        0.0017
     40 C         138.7282  142.0274  163.9980 C.3     1  UNL1        0.0198
     41 C         139.9449  146.3419  156.7442 C.1     1  UNL1        0.1030
     42 N         138.9608  147.4429  156.4808 N.1     1  UNL1       -0.1907
@<TRIPOS>BOND
     1     1     2    1
     2     2     3    1
     3     2     4    1
     4     4     5    1
     5     6     5    1
     6     6     7    1
     7     7     8    1
     8     8     9    1
     9     9    10    1
    10     9    11    1
    11    11    12    1
    12    11    13    1
    13    13    14    1
    14    15    14    1
    15    15    16    1
    16    16    17    1
    17    16    18    1
    18    16    19    1
    19    19    20    2
    20    19    21    1
    21    21    41    1
    22    41    42    3
    23    21    22    2
    24    22    23    1
    25    23    24    1
    26    23    25    1
    27    25    26    2
    28    26    27    1
    29    27    28    2
    30    27    29    1
    31    29    30    1
    32    30    31    1
    33    29    32    1
    34    32    35    1
    35    35    36    1
    36    36    37    1
    37    37    38    1
    38    38    39    1
    39    39    40    1
    40    32    33   am
    41    33    34    2
    42    31     2    1
    43    40    35    1
    44    30     6    1
    45    33     6    1
    46    29     9    1
    47    25    11    1
    48    23    15    1
@<TRIPOS>MOLECULE
*****
 42 48 0 0 0
SMALL
GASTEIGER

@<TRIPOS>ATOM
      1 C         142.3517  141.3938  166.1469 C.3     1  UNL1        0.0000
      2 C         141.2559  142.4174  166.1068 C.3     1  UNL1        0.0001
      3 C         141.1877  142.0193  167.5514 C.3     1  UNL1        0.0000
      4 C         140.1365  143.3027  166.5683 C.3     1  UNL1        0.0005
      5 C         139.4658  144.2307  165.5993 C.3     1  UNL1        0.0087
      6 C         139.9146  144.2733  164.1686 C.3     1  UNL1        0.0709
      7 C         139.2439  145.2012  163.1995 C.3     1  UNL1        0.0088
      8 C         139.6926  145.2439  161.7689 C.3     1  UNL1        0.0027
      9 C         140.8121  144.3585  161.3073 C.3     1  UNL1        0.0251
     10 C         141.9315  143.4731  160.8457 C.3     1  UNL1        0.0023
     11 C         141.2608  144.4011  159.8766 C.3     1  UNL1        0.0174
     12 C         140.1414  145.2864  160.3382 C.3     1  UNL1        0.0041
     13 C         140.5901  145.3290  158.9076 C.3     1  UNL1        0.0038
     14 C         141.0389  145.3716  157.4768 C.3     1  UNL1        0.0014
     15 C         142.1583  144.4863  157.0153 C.3     1  UNL1        0.0141
     16 C         142.6070  144.5289  155.5846 C.3     1  UNL1        0.0568
     17 C         142.6752  144.9270  154.1400 C.3     1  UNL1        0.0077
     18 C         141.5113  145.5525  155.5445 C.3     1  UNL1        0.0077
     19 C         143.7265  143.6435  155.1230 C.2     1  UNL1        0.1815
     20 O         144.1752  143.6861  153.6924 O.2     1  UNL1       -0.2907
     21 C         144.3971  142.7156  156.0921 C.2     1  UNL1        0.0990
     22 C         143.9484  142.6730  157.5228 C.2     1  UNL1       -0.0098
     23 C         142.8290  143.5583  157.9844 C.3     1  UNL1        0.0349
     24 C         143.4996  142.6304  158.9534 C.3     1  UNL1        0.0085
     25 C         142.3802  143.5157  159.4150 C.2     1  UNL1       -0.0387
     26 C         143.0509  142.5878  160.3841 C.2     1  UNL1        0.0309
     27 C         142.6021  142.5452  161.8148 C.2     1  UNL1        0.1884
     28 O         143.1729  141.8772  162.2582 O.2     1  UNL1       -0.2897
     29 C         141.4827  143.4305  162.2763 C.3     1  UNL1        0.1159
     30 C         141.0340  143.3880  163.7071 C.3     1  UNL1        0.0319
     31 C         141.7046  142.4600  164.6761 C.3     1  UNL1        0.0025
     32 N         141.8408  142.6983  163.5356 N.am    1  UNL1       -0.2777
     33 C         140.9355  143.1849  164.6281 C.2     1  UNL1        0.2249
     34 O         141.1024  142.7845  165.4003 O.2     1  UNL1       -0.2749
     35 C         142.9155  141.6617  163.6775 C.3     1  UNL1        0.0756
     36 C         142.5883  140.2107  163.4835 C.3     1  UNL1        0.0198
     37 C         143.6631  139.1740  163.6254 C.3     1  UNL1        0.0017
     38 C         145.0651  139.5882  163.9613 C.3     1  UNL1        0.0001
     39 C         145.3923  141.0393  164.1553 C.3     1  UNL1        0.0017
     40 C         144.3175  142.0759  164.0134 C.3     1  UNL1        0.0198
     41 C         145.5165  141.8302  155.6305 C.1     1  UNL1        0.1030
     42 N         146.6359  140.9449  155.1689 N.1     1  UNL1       -0.1907
@<TRIPOS>BOND
     1     1     2    1
     2     2     3    1
     3     2     4    1
     4     4     5    1
     5     6     5    1
     6     6     7    1
     7     7     8    1
     8     8     9    1
     9     9    10    1
    10     9    11    1
    11    11    12    1
    12    11    13    1
    13    13    14    1
    14    15    14    1
    15    15    16    1
    16    16    17    1
    17    16    18    1
    18    16    19    1
    19    19    20    2
    20    19    21    1
    21    21    41    1
    22    41    42    3
    23    21    22    2
    24    22    23    1
    25    23    24    1
    26    23    25    1
    27    25    26    2
    28    26    27    1
    29    27    28    2
    30    27    29    1
    31    29    30    1
    32    30    31    1
    33    29    32    1
    34    32    35    1
    35    35    36    1
    36    36    37    1
    37    37    38    1
    38    38    39    1
    39    39    40    1
    40    32    33   am
    41    33    34    2
    42    31     2    1
    43    40    35    1
    44    30     6    1
    45    33     6    1
    46    29     9    1
    47    25    11    1
    48    23    15    1
@<TRIPOS>MOLECULE
*****
 42 48 0 0 0
SMALL
GASTEIGER

@<TRIPOS>ATOM
      1 C         140.0009  143.1444  166.8793 C.3     1  UNL1        0.0000
      2 C         141.0494  142.1371  167.2481 C.3     1  UNL1        0.0001
      3 C         140.8468  142.8010  168.5779 C.3     1  UNL1        0.0000
      4 C         142.0275  141.3604  168.0787 C.3     1  UNL1        0.0005
      5 C         142.8442  140.2697  167.4515 C.3     1  UNL1        0.0087
      6 C         142.6827  139.9557  165.9937 C.3     1  UNL1        0.0709
      7 C         143.4994  138.8649  165.3665 C.3     1  UNL1        0.0088
      8 C         143.3379  138.5509  163.9087 C.3     1  UNL1        0.0027
      9 C         142.3597  139.3276  163.0780 C.3     1  UNL1        0.0251
     10 C         141.3816  140.1043  162.2474 C.3     1  UNL1        0.0023
     11 C         142.1982  139.0136  161.6202 C.3     1  UNL1        0.0174
     12 C         143.1764  138.2369  162.4508 C.3     1  UNL1        0.0041
     13 C         143.0149  137.9229  160.9930 C.3     1  UNL1        0.0038
     14 C         142.8534  137.6088  159.5351 C.3     1  UNL1        0.0014
     15 C         141.8752  138.3856  158.7045 C.3     1  UNL1        0.0141
     16 C         141.7138  138.0715  157.2467 C.3     1  UNL1        0.0568
     17 C         141.9164  137.4077  155.9169 C.3     1  UNL1        0.0077
     18 C         142.7623  137.0642  157.6155 C.3     1  UNL1        0.0077
     19 C         140.7356  138.8482  156.4160 C.2     1  UNL1        0.1815
     20 O         140.5741  138.5342  154.9582 O.2     1  UNL1       -0.2907
     21 C         139.9189  139.9390  157.0432 C.2     1  UNL1        0.0990
     22 C         140.0805  140.2530  158.5011 C.2     1  UNL1       -0.0098
     23 C         141.0586  139.4763  159.3317 C.3     1  UNL1        0.0349
     24 C         140.2419  140.5670  159.9589 C.3     1  UNL1        0.0085
     25 C         141.2201  139.7903  160.7895 C.2     1  UNL1       -0.0387
     26 C         140.4034  140.8810  161.4167 C.2     1  UNL1        0.0309
     27 C         140.5649  141.1950  162.8746 C.2     1  UNL1        0.1884
     28 O         139.9406  141.9318  163.0641 O.2     1  UNL1       -0.2897
     29 C         141.5431  140.4183  163.7052 C.3     1  UNL1        0.1159
     30 C         141.7046  140.7324  165.1631 C.3     1  UNL1        0.0319
     31 C         140.8879  141.8231  165.7903 C.3     1  UNL1        0.0025
     32 N         140.9697  141.3732  164.7100 N.am    1  UNL1       -0.2777
     33 C         141.6277  141.1060  166.0313 C.2     1  UNL1        0.2249
     34 O         141.3261  141.6441  166.6669 O.2     1  UNL1       -0.2749
     35 C         139.9223  142.4126  164.4409 C.3     1  UNL1        0.0756
     36 C         138.4692  142.0645  164.5718 C.3     1  UNL1        0.0198
     37 C         137.4217  143.1040  164.3026 C.3     1  UNL1        0.0017
     38 C         137.8275  144.4916  163.9026 C.3     1  UNL1        0.0001
     39 C         139.2807  144.8396  163.7716 C.3     1  UNL1        0.0017
     40 C         140.3281  143.8001  164.0408 C.3     1  UNL1        0.0198
     41 C         138.9408  140.7157  156.2126 C.1     1  UNL1        0.1030
     42 N         137.9627  141.4924  155.3820 N.1     1  UNL1       -0.1907
@<TRIPOS>BOND
     1     1     2    1
     2     2     3    1
     3     2     4    1
     4     4     5    1
     5     6     5    1
     6     6     7    1
     7     7     8    1
     8     8     9    1
     9     9    10    1
    10     9    11    1
    11    11    12    1
    12    11    13    1
    13    13    14    1
    14    15    14    1
    15    15    16    1
    16    16    17    1
    17    16    18    1
    18    16    19    1
    19    19    20    2
    20    19    21    1
    21    21    41    1
    22    41    42    3
    23    21    22    2
    24    22    23    1
    25    23    24    1
    26    23    25    1
    27    25    26    2
    28    26    27    1
    29    27    28    2
    30    27    29    1
    31    29    30    1
    32    30    31    1
    33    29    32    1
    34    32    35    1
    35    35    36    1
    36    36    37    1
    37    37    38    1
    38    38    39    1
    39    39    40    1
    40    32    33   am
    41    33    34    2
    42    31     2    1
    43    40    35    1
    44    30     6    1
    45    33     6    1
    46    29     9    1
    47    25    11    1
    48    23    15    1
@<TRIPOS>MOLECULE
*****
 42 48 0 0 0
SMALL
GASTEIGER

@<TRIPOS>ATOM
      1 C         141.3726  142.3623  166.4881 C.3     1  UNL1        0.0000
      2 C         140.3672  141.2632  166.3115 C.3     1  UNL1        0.0001
      3 C         140.0493  141.6839  167.7158 C.3     1  UNL1        0.0000
      4 C         139.2514  140.3102  166.6226 C.3     1  UNL1        0.0005
      5 C         138.8027  139.3183  165.5907 C.3     1  UNL1        0.0087
      6 C         139.4698  139.2793  164.2478 C.3     1  UNL1        0.0709
      7 C         139.0211  138.2874  163.2160 C.3     1  UNL1        0.0088
      8 C         139.6882  138.2484  161.8731 C.3     1  UNL1        0.0027
      9 C         140.8040  139.2014  161.5620 C.3     1  UNL1        0.0251
     10 C         141.9198  140.1544  161.2509 C.3     1  UNL1        0.0023
     11 C         141.4711  139.1624  160.2190 C.3     1  UNL1        0.0174
     12 C         140.3553  138.2094  160.5301 C.3     1  UNL1        0.0041
     13 C         141.0224  138.1705  159.1872 C.3     1  UNL1        0.0038
     14 C         141.6895  138.1315  157.8442 C.3     1  UNL1        0.0014
     15 C         142.8053  139.0845  157.5332 C.3     1  UNL1        0.0141
     16 C         143.4724  139.0455  156.1903 C.3     1  UNL1        0.0568
     17 C         143.7903  138.6248  154.7860 C.3     1  UNL1        0.0077
     18 C         142.4670  137.9464  156.0137 C.3     1  UNL1        0.0077
     19 C         144.5883  139.9985  155.8792 C.2     1  UNL1        0.1815
     20 O         145.2553  139.9595  154.5362 O.2     1  UNL1       -0.2907
     21 C         145.0370  140.9905  156.9110 C.2     1  UNL1        0.0990
     22 C         144.3698  141.0294  158.2540 C.2     1  UNL1       -0.0098
     23 C         143.2540  140.0764  158.5650 C.3     1  UNL1        0.0349
     24 C         143.7028  141.0684  159.5969 C.3     1  UNL1        0.0085
     25 C         142.5870  140.1154  159.9079 C.2     1  UNL1       -0.0387
     26 C         143.0357  141.1074  160.9398 C.2     1  UNL1        0.0309
     27 C         142.3685  141.1463  162.2827 C.2     1  UNL1        0.1884
     28 O         142.8176  141.8616  162.7880 O.2     1  UNL1       -0.2897
     29 C         141.2527  140.1933  162.5938 C.3     1  UNL1        0.1159
     30 C         140.5856  140.2323  163.9368 C.3     1  UNL1        0.0319
     31 C         141.0343  141.2242  164.9686 C.3     1  UNL1        0.0025
     32 N         141.3614  140.9737  163.8702 N.am    1  UNL1       -0.2777
     33 C         140.3320  140.4460  164.8252 C.2     1  UNL1        0.2249
     34 O         140.3500  140.8723  165.6013 O.2     1  UNL1       -0.2749
     35 C         142.3294  142.0863  164.1437 C.3     1  UNL1        0.0756
     36 C         143.6702  141.7833  164.7440 C.3     1  UNL1        0.0198
     37 C         144.6383  142.8961  165.0175 C.3     1  UNL1        0.0017
     38 C         144.2655  144.3118  164.6907 C.3     1  UNL1        0.0001
     39 C         142.9246  144.6148  164.0904 C.3     1  UNL1        0.0017
     40 C         141.9566  143.5020  163.8169 C.3     1  UNL1        0.0198
     41 C         146.1528  141.9434  156.5999 C.1     1  UNL1        0.1030
     42 N         147.2686  142.8964  156.2889 N.1     1  UNL1       -0.1907
@<TRIPOS>BOND
     1     1     2    1
     2     2     3    1
     3     2     4    1
     4     4     5    1
     5     6     5    1
     6     6     7    1
     7     7     8    1
     8     8     9    1
     9     9    10    1
    10     9    11    1
    11    11    12    1
    12    11    13    1
    13    13    14    1
    14    15    14    1
    15    15    16    1
    16    16    17    1
    17    16    18    1
    18    16    19    1
    19    19    20    2
    20    19    21    1
    21    21    41    1
    22    41    42    3
    23    21    22    2
    24    22    23    1
    25    23    24    1
    26    23    25    1
    27    25    26    2
    28    26    27    1
    29    27    28    2
    30    27    29    1
    31    29    30    1
    32    30    31    1
    33    29    32    1
    34    32    35    1
    35    35    36    1
    36    36    37    1
    37    37    38    1
    38    38    39    1
    39    39    40    1
    40    32    33   am
    41    33    34    2
    42    31     2    1
    43    40    35    1
    44    30     6    1
    45    33     6    1
    46    29     9    1
    47    25    11    1
    48    23    15    1
