@<TRIPOS>MOLECULE
*****
 30 35 0 0 0
SMALL
GASTEIGER

@<TRIPOS>ATOM
      1 N         138.4836  145.1844  165.8278 N.pl3   1  UNL1       -0.3133
      2 C         138.2894  144.2250  164.6913 C.2     1  UNL1        0.2770
      3 N         138.5712  142.7519  164.7231 N.2     1  UNL1       -0.2202
      4 C         138.2352  142.1866  163.3748 C.3     1  UNL1        0.1582
      5 C         137.7459  143.3102  162.5099 C.3     1  UNL1        0.2351
      6 O         137.7794  144.5700  163.3235 O.2     1  UNL1       -0.4478
      7 C         138.7422  141.1694  164.3538 C.ar    1  UNL1        0.0357
      8 C         139.1187  141.5890  165.7439 C.ar    1  UNL1        0.0007
      9 C         139.6256  140.5719  166.7229 C.ar    1  UNL1        0.0029
     10 C         139.7561  139.1352  166.3118 C.ar    1  UNL1        0.0032
     11 C         139.3797  138.7157  164.9218 C.ar    1  UNL1        0.0366
     12 C         138.8727  139.7328  163.9428 C.ar    1  UNL1        0.1362
     13 O         138.4963  139.3133  162.5528 O.3     1  UNL1       -0.4792
     14 C         137.9893  140.3304  161.5738 C.3     1  UNL1        0.1726
     15 C         137.8588  141.7671  161.9848 C.3     1  UNL1        0.1174
     16 C         138.0002  141.4833  162.2579 C.3     1  UNL1        0.1502
     17 O         137.8516  141.7816  161.9708 O.3     1  UNL1       -0.3532
     18 C         138.0002  141.4833  162.2579 C.3     1  UNL1        0.1502
     19 H         138.8255  144.8606  166.6924 H       1  UNL1        0.1466
     20 H         138.2692  146.1379  165.7091 H       1  UNL1        0.1466
     21 C         140.0021  140.9914  168.1130 C.ar    1  UNL1        0.0384
     22 C         139.3733  140.3169  169.2962 C.ar    1  UNL1        0.1022
     23 N         139.7498  140.7364  170.6862 N.ar    1  UNL1       -0.2224
     24 C         140.7549  141.8304  170.8932 C.ar    1  UNL1        0.1989
     25 N         141.3837  142.5048  169.7101 N.ar    1  UNL1       -0.2224
     26 C         141.0072  142.0854  168.3199 C.ar    1  UNL1        0.1022
     27 C         137.6129  139.9108  160.1836 C.3     1  UNL1        0.0438
     28 C         138.6806  139.5460  159.1953 C.3     1  UNL1        0.0036
     29 C         139.2981  139.6939  157.8364 C.3     1  UNL1        0.0001
     30 C         139.9123  138.7662  158.8423 C.3     1  UNL1        0.0001
@<TRIPOS>BOND
     1     1     2    1
     2     2     3    2
     3     3     4    1
     4     4     5    1
     5     5     6    1
     6     4     7    1
     7     7     8   ar
     8     8     9   ar
     9     9    21    1
    10    21    22   ar
    11    22    23   ar
    12    23    24   ar
    13    24    25   ar
    14    25    26   ar
    15     9    10   ar
    16    10    11   ar
    17    11    12   ar
    18    12    13    1
    19    13    14    1
    20    14    27    1
    21    27    28    1
    22    28    29    1
    23    29    30    1
    24    14    15    1
    25    15    16    1
    26    16    17    1
    27    17    18    1
    28     6     2    1
    29    12     7   ar
    30    30    28    1
    31    18    15    1
    32    15     4    1
    33    26    21   ar
    34     1    19    1
    35     1    20    1
@<TRIPOS>MOLECULE
*****
 30 35 0 0 0
SMALL
GASTEIGER

@<TRIPOS>ATOM
      1 N         138.4389  142.8465  160.3814 N.pl3   1  UNL1       -0.3133
      2 C         138.3359  142.2019  161.7318 C.2     1  UNL1        0.2770
      3 N         139.0578  140.9639  162.1752 N.2     1  UNL1       -0.2202
      4 C         138.6610  140.6789  163.5935 C.3     1  UNL1        0.1582
      5 C         137.6941  141.7407  164.0266 C.3     1  UNL1        0.2351
      6 O         137.4932  142.6819  162.8760 O.2     1  UNL1       -0.4478
      7 C         139.6335  139.6903  163.0216 C.ar    1  UNL1        0.0357
      8 C         140.1208  139.8474  161.6117 C.ar    1  UNL1        0.0007
      9 C         141.0933  138.8588  161.0398 C.ar    1  UNL1        0.0029
     10 C         141.5783  137.7131  161.8778 C.ar    1  UNL1        0.0032
     11 C         141.0910  137.5561  163.2877 C.ar    1  UNL1        0.0366
     12 C         140.1185  138.5447  163.8596 C.ar    1  UNL1        0.1362
     13 O         139.6312  138.3877  165.2694 O.3     1  UNL1       -0.4792
     14 C         138.6587  139.3762  165.8413 C.3     1  UNL1        0.1726
     15 C         138.1737  140.5219  165.0034 C.3     1  UNL1        0.1174
     16 C         138.4450  140.2460  164.8438 C.3     1  UNL1        0.1502
     17 O         138.1598  140.5360  165.0115 O.3     1  UNL1       -0.3532
     18 C         138.4450  140.2460  164.8438 C.3     1  UNL1        0.1502
     19 H         139.0223  142.4545  159.6920 H       1  UNL1        0.1466
     20 H         137.9231  143.6615  160.1844 H       1  UNL1        0.1466
     21 C         141.5806  139.0158  159.6299 C.ar    1  UNL1        0.0384
     22 C         143.0528  139.0301  159.3424 C.ar    1  UNL1        0.1022
     23 N         143.5402  139.1871  157.9326 N.ar    1  UNL1       -0.2224
     24 C         142.5554  139.3298  156.8101 C.ar    1  UNL1        0.1989
     25 N         141.0833  139.3156  157.0975 N.ar    1  UNL1       -0.2224
     26 C         140.5959  139.1586  158.5074 C.ar    1  UNL1        0.1022
     27 C         138.1714  139.2192  167.2513 C.3     1  UNL1        0.0438
     28 C         138.9806  139.7658  168.3898 C.3     1  UNL1        0.0036
     29 C         139.0518  140.3612  169.7647 C.3     1  UNL1        0.0001
     30 C         140.3110  140.1170  168.9870 C.3     1  UNL1        0.0001
@<TRIPOS>BOND
     1     1     2    1
     2     2     3    2
     3     3     4    1
     4     4     5    1
     5     5     6    1
     6     4     7    1
     7     7     8   ar
     8     8     9   ar
     9     9    21    1
    10    21    22   ar
    11    22    23   ar
    12    23    24   ar
    13    24    25   ar
    14    25    26   ar
    15     9    10   ar
    16    10    11   ar
    17    11    12   ar
    18    12    13    1
    19    13    14    1
    20    14    27    1
    21    27    28    1
    22    28    29    1
    23    29    30    1
    24    14    15    1
    25    15    16    1
    26    16    17    1
    27    17    18    1
    28     6     2    1
    29    12     7   ar
    30    30    28    1
    31    18    15    1
    32    15     4    1
    33    26    21   ar
    34     1    19    1
    35     1    20    1
@<TRIPOS>MOLECULE
*****
 30 35 0 0 0
SMALL
GASTEIGER

@<TRIPOS>ATOM
      1 N         137.7505  138.3246  166.6977 N.pl3   1  UNL1       -0.3133
      2 C         138.8283  138.1969  165.6624 C.2     1  UNL1        0.2770
      3 N         140.1037  138.9853  165.6155 N.2     1  UNL1       -0.2202
      4 C         140.8837  138.5341  164.4162 C.3     1  UNL1        0.1582
      5 C         140.0905  137.4669  163.7221 C.3     1  UNL1        0.2351
      6 O         138.8202  137.2585  164.4922 O.2     1  UNL1       -0.4478
      7 C         141.5599  139.6088  165.2148 C.ar    1  UNL1        0.0357
      8 C         140.8978  140.1595  166.4430 C.ar    1  UNL1        0.0007
      9 C         141.5740  141.2342  167.2416 C.ar    1  UNL1        0.0029
     10 C         142.9123  141.7582  166.8120 C.ar    1  UNL1        0.0032
     11 C         143.5743  141.2075  165.5839 C.ar    1  UNL1        0.0366
     12 C         142.8981  140.1328  164.7853 C.ar    1  UNL1        0.1362
     13 O         143.5601  139.5821  163.5571 O.3     1  UNL1       -0.4792
     14 C         142.8839  138.5073  162.7585 C.3     1  UNL1        0.1726
     15 C         141.5457  137.9834  163.1881 C.3     1  UNL1        0.1174
     16 C         141.7344  138.2832  163.4109 C.3     1  UNL1        0.1502
     17 O         141.5361  137.9680  163.1767 O.3     1  UNL1       -0.3532
     18 C         141.7344  138.2832  163.4109 C.3     1  UNL1        0.1502
     19 H         137.8477  138.9731  167.4320 H       1  UNL1        0.1466
     20 H         136.9460  137.7599  166.6429 H       1  UNL1        0.1466
     21 C         140.9120  141.7849  168.4698 C.ar    1  UNL1        0.0384
     22 C         139.8174  141.0110  169.1429 C.ar    1  UNL1        0.1022
     23 N         139.1554  141.5617  170.3710 N.ar    1  UNL1       -0.2224
     24 C         139.5879  142.8864  170.9262 C.ar    1  UNL1        0.1989
     25 N         140.6824  143.6603  170.2532 N.ar    1  UNL1       -0.2224
     26 C         141.3445  143.1096  169.0249 C.ar    1  UNL1        0.1022
     27 C         143.5460  137.9566  161.5303 C.3     1  UNL1        0.0438
     28 C         143.4354  138.6893  160.2262 C.3     1  UNL1        0.0036
     29 C         142.9445  138.7543  158.8102 C.3     1  UNL1        0.0001
     30 C         143.7346  139.8933  159.3832 C.3     1  UNL1        0.0001
@<TRIPOS>BOND
     1     1     2    1
     2     2     3    2
     3     3     4    1
     4     4     5    1
     5     5     6    1
     6     4     7    1
     7     7     8   ar
     8     8     9   ar
     9     9    21    1
    10    21    22   ar
    11    22    23   ar
    12    23    24   ar
    13    24    25   ar
    14    25    26   ar
    15     9    10   ar
    16    10    11   ar
    17    11    12   ar
    18    12    13    1
    19    13    14    1
    20    14    27    1
    21    27    28    1
    22    28    29    1
    23    29    30    1
    24    14    15    1
    25    15    16    1
    26    16    17    1
    27    17    18    1
    28     6     2    1
    29    12     7   ar
    30    30    28    1
    31    18    15    1
    32    15     4    1
    33    26    21   ar
    34     1    19    1
    35     1    20    1
@<TRIPOS>MOLECULE
*****
 30 35 0 0 0
SMALL
GASTEIGER

@<TRIPOS>ATOM
      1 N         138.5937  138.7528  161.2643 N.pl3   1  UNL1       -0.3133
      2 C         138.7683  138.8984  162.7469 C.2     1  UNL1        0.2770
      3 N         139.1878  140.1457  163.4670 N.2     1  UNL1       -0.2202
      4 C         139.2328  139.8405  164.9350 C.3     1  UNL1        0.1582
      5 C         138.8411  138.4046  165.1221 C.3     1  UNL1        0.2351
      6 O         138.5540  137.8224  163.7698 O.2     1  UNL1       -0.4478
      7 C         139.6042  141.2532  164.5940 C.ar    1  UNL1        0.0357
      8 C         139.6040  141.7041  163.1633 C.ar    1  UNL1        0.0007
      9 C         139.9754  143.1169  162.8222 C.ar    1  UNL1        0.0029
     10 C         140.3469  144.0786  163.9118 C.ar    1  UNL1        0.0032
     11 C         140.3470  143.6276  165.3424 C.ar    1  UNL1        0.0366
     12 C         139.9757  142.2149  165.6834 C.ar    1  UNL1        0.1362
     13 O         139.9758  141.7639  167.1140 O.3     1  UNL1       -0.4792
     14 C         139.6045  140.3512  167.4551 C.3     1  UNL1        0.1726
     15 C         139.2330  139.3895  166.3656 C.3     1  UNL1        0.1174
     16 C         139.3366  139.7836  166.2704 C.3     1  UNL1        0.1502
     17 O         139.2277  139.3693  166.3704 O.3     1  UNL1       -0.3532
     18 C         139.3366  139.7836  166.2704 C.3     1  UNL1        0.1502
     19 H         138.7591  139.5212  160.6714 H       1  UNL1        0.1466
     20 H         138.3138  137.8890  160.8841 H       1  UNL1        0.1466
     21 C         139.9752  143.5679  161.3917 C.ar    1  UNL1        0.0384
     22 C         140.8630  144.6978  160.9614 C.ar    1  UNL1        0.1022
     23 N         140.8629  145.1488  159.5308 N.ar    1  UNL1       -0.2224
     24 C         139.9750  144.4699  158.5305 C.ar    1  UNL1        0.1989
     25 N         139.0872  143.3400  158.9607 N.ar    1  UNL1       -0.2224
     26 C         139.0873  142.8889  160.3913 C.ar    1  UNL1        0.1022
     27 C         139.6046  139.9002  168.8857 C.3     1  UNL1        0.0438
     28 C         140.8854  139.8823  169.6663 C.3     1  UNL1        0.0036
     29 C         141.7742  140.4775  170.7179 C.3     1  UNL1        0.0001
     30 C         142.2149  139.2562  169.9669 C.3     1  UNL1        0.0001
@<TRIPOS>BOND
     1     1     2    1
     2     2     3    2
     3     3     4    1
     4     4     5    1
     5     5     6    1
     6     4     7    1
     7     7     8   ar
     8     8     9   ar
     9     9    21    1
    10    21    22   ar
    11    22    23   ar
    12    23    24   ar
    13    24    25   ar
    14    25    26   ar
    15     9    10   ar
    16    10    11   ar
    17    11    12   ar
    18    12    13    1
    19    13    14    1
    20    14    27    1
    21    27    28    1
    22    28    29    1
    23    29    30    1
    24    14    15    1
    25    15    16    1
    26    16    17    1
    27    17    18    1
    28     6     2    1
    29    12     7   ar
    30    30    28    1
    31    18    15    1
    32    15     4    1
    33    26    21   ar
    34     1    19    1
    35     1    20    1
@<TRIPOS>MOLECULE
*****
 30 35 0 0 0
SMALL
GASTEIGER

@<TRIPOS>ATOM
      1 N         145.3448  142.5713  161.8666 N.pl3   1  UNL1       -0.3133
      2 C         144.5349  142.4888  163.1264 C.2     1  UNL1        0.2770
      3 N         143.1293  142.9813  163.3048 N.2     1  UNL1       -0.2202
      4 C         142.7140  142.6961  164.7177 C.3     1  UNL1        0.1582
      5 C         143.8629  142.0274  165.4125 C.3     1  UNL1        0.2351
      6 O         144.9883  141.8993  164.4290 O.2     1  UNL1       -0.4478
      7 C         141.6560  143.3698  163.8950 C.ar    1  UNL1        0.0357
      8 C         141.9287  143.7172  162.4614 C.ar    1  UNL1        0.0007
      9 C         140.8707  144.3909  161.6387 C.ar    1  UNL1        0.0029
     10 C         139.5401  144.7172  162.2496 C.ar    1  UNL1        0.0032
     11 C         139.2675  144.3698  163.6831 C.ar    1  UNL1        0.0366
     12 C         140.3255  143.6961  164.5058 C.ar    1  UNL1        0.1362
     13 O         140.0529  143.3487  165.9393 O.3     1  UNL1       -0.4792
     14 C         141.1109  142.6750  166.7620 C.3     1  UNL1        0.1726
     15 C         142.4414  142.3487  166.1512 C.3     1  UNL1        0.1174
     16 C         142.1463  142.5367  165.9217 C.3     1  UNL1        0.1502
     17 O         142.4565  142.3391  166.1629 O.3     1  UNL1       -0.3532
     18 C         142.1463  142.5367  165.9217 C.3     1  UNL1        0.1502
     19 H         144.9575  142.9785  161.0582 H       1  UNL1        0.1466
     20 H         146.2637  142.2183  161.8481 H       1  UNL1        0.1466
     21 C         141.1432  144.7383  160.2052 C.ar    1  UNL1        0.0384
     22 C         142.3696  144.2063  159.5247 C.ar    1  UNL1        0.1022
     23 N         142.6422  144.5537  158.0912 N.ar    1  UNL1       -0.2224
     24 C         141.6884  145.4331  157.3382 C.ar    1  UNL1        0.1989
     25 N         140.4621  145.9651  158.0186 N.ar    1  UNL1       -0.2224
     26 C         140.1895  145.6177  159.4522 C.ar    1  UNL1        0.1022
     27 C         140.8382  142.3276  168.1956 C.3     1  UNL1        0.0438
     28 C         139.9905  141.1363  168.5305 C.3     1  UNL1        0.0036
     29 C         139.2152  140.3343  169.5333 C.3     1  UNL1        0.0001
     30 C         139.2975  139.8750  168.1077 C.3     1  UNL1        0.0001
@<TRIPOS>BOND
     1     1     2    1
     2     2     3    2
     3     3     4    1
     4     4     5    1
     5     5     6    1
     6     4     7    1
     7     7     8   ar
     8     8     9   ar
     9     9    21    1
    10    21    22   ar
    11    22    23   ar
    12    23    24   ar
    13    24    25   ar
    14    25    26   ar
    15     9    10   ar
    16    10    11   ar
    17    11    12   ar
    18    12    13    1
    19    13    14    1
    20    14    27    1
    21    27    28    1
    22    28    29    1
    23    29    30    1
    24    14    15    1
    25    15    16    1
    26    16    17    1
    27    17    18    1
    28     6     2    1
    29    12     7   ar
    30    30    28    1
    31    18    15    1
    32    15     4    1
    33    26    21   ar
    34     1    19    1
    35     1    20    1
@<TRIPOS>MOLECULE
*****
 30 35 0 0 0
SMALL
GASTEIGER

@<TRIPOS>ATOM
      1 N         144.5804  143.5672  166.1168 N.pl3   1  UNL1       -0.3133
      2 C         144.4706  142.4715  165.0984 C.2     1  UNL1        0.2770
      3 N         143.4352  141.3862  165.0792 N.2     1  UNL1       -0.2202
      4 C         143.7015  140.5125  163.8893 C.3     1  UNL1        0.1582
      5 C         144.9014  141.0577  163.1732 C.3     1  UNL1        0.2351
      6 O         145.3768  142.2685  163.9205 O.2     1  UNL1       -0.4478
      7 C         142.5196  140.0848  164.7080 C.ar    1  UNL1        0.0357
      8 C         142.1319  140.8641  165.9296 C.ar    1  UNL1        0.0007
      9 C         140.9500  140.4364  166.7483 C.ar    1  UNL1        0.0029
     10 C         140.1558  139.2293  166.3453 C.ar    1  UNL1        0.0032
     11 C         140.5435  138.4501  165.1237 C.ar    1  UNL1        0.0366
     12 C         141.7254  138.8778  164.3050 C.ar    1  UNL1        0.1362
     13 O         142.1131  138.0985  163.0834 O.3     1  UNL1       -0.4792
     14 C         143.2950  138.5262  162.2647 C.3     1  UNL1        0.1726
     15 C         144.0892  139.7332  162.6677 C.3     1  UNL1        0.1174
     16 C         143.7594  139.6139  162.8961 C.3     1  UNL1        0.1502
     17 O         144.1060  139.7393  162.6560 O.3     1  UNL1       -0.3532
     18 C         143.7594  139.6139  162.8961 C.3     1  UNL1        0.1502
     19 H         143.9344  143.6169  166.8580 H       1  UNL1        0.1466
     20 H         145.2985  144.2367  166.0439 H       1  UNL1        0.1466
     21 C         140.5623  141.2156  167.9699 C.ar    1  UNL1        0.0384
     22 C         140.8943  142.6754  168.0650 C.ar    1  UNL1        0.1022
     23 N         140.5066  143.4547  169.2866 N.ar    1  UNL1       -0.2224
     24 C         139.7869  142.7742  170.4132 C.ar    1  UNL1        0.1989
     25 N         139.4550  141.3145  170.3181 N.ar    1  UNL1       -0.2224
     26 C         139.8427  140.5352  169.0965 C.ar    1  UNL1        0.1022
     27 C         143.6827  137.7469  161.0430 C.3     1  UNL1        0.0438
     28 C         142.8865  137.8878  159.7796 C.3     1  UNL1        0.0036
     29 C         142.7014  137.5911  158.3210 C.3     1  UNL1        0.0001
     30 C         141.6926  138.4283  159.0500 C.3     1  UNL1        0.0001
@<TRIPOS>BOND
     1     1     2    1
     2     2     3    2
     3     3     4    1
     4     4     5    1
     5     5     6    1
     6     4     7    1
     7     7     8   ar
     8     8     9   ar
     9     9    21    1
    10    21    22   ar
    11    22    23   ar
    12    23    24   ar
    13    24    25   ar
    14    25    26   ar
    15     9    10   ar
    16    10    11   ar
    17    11    12   ar
    18    12    13    1
    19    13    14    1
    20    14    27    1
    21    27    28    1
    22    28    29    1
    23    29    30    1
    24    14    15    1
    25    15    16    1
    26    16    17    1
    27    17    18    1
    28     6     2    1
    29    12     7   ar
    30    30    28    1
    31    18    15    1
    32    15     4    1
    33    26    21   ar
    34     1    19    1
    35     1    20    1
@<TRIPOS>MOLECULE
*****
 30 35 0 0 0
SMALL
GASTEIGER

@<TRIPOS>ATOM
      1 N         144.8759  143.0223  161.5948 N.pl3   1  UNL1       -0.3133
      2 C         144.4684  142.9118  163.0340 C.2     1  UNL1        0.2770
      3 N         143.5670  141.8640  163.6171 N.2     1  UNL1       -0.2202
      4 C         143.4321  142.1343  165.0865 C.3     1  UNL1        0.1582
      5 C         144.2500  143.3490  165.4114 C.3     1  UNL1        0.2351
      6 O         144.8904  143.8295  164.1429 O.2     1  UNL1       -0.4478
      7 C         142.6613  140.9378  164.6129 C.ar    1  UNL1        0.0357
      8 C         142.7010  140.5447  163.1658 C.ar    1  UNL1        0.0007
      9 C         141.9302  139.3482  162.6922 C.ar    1  UNL1        0.0029
     10 C         141.1197  138.5448  163.6657 C.ar    1  UNL1        0.0032
     11 C         141.0800  138.9379  165.1127 C.ar    1  UNL1        0.0366
     12 C         141.8508  140.1344  165.5863 C.ar    1  UNL1        0.1362
     13 O         141.8111  140.5275  167.0333 O.3     1  UNL1       -0.4792
     14 C         142.5819  141.7240  167.5069 C.3     1  UNL1        0.1726
     15 C         143.3924  142.5274  166.5335 C.3     1  UNL1        0.1174
     16 C         143.1773  142.1935  166.4014 C.3     1  UNL1        0.1502
     17 O         143.4034  142.5444  166.5402 O.3     1  UNL1       -0.3532
     18 C         143.1773  142.1935  166.4014 C.3     1  UNL1        0.1502
     19 H         144.5448  142.3681  160.9378 H       1  UNL1        0.1466
     20 H         145.4746  143.7490  161.3071 H       1  UNL1        0.1466
     21 C         141.9699  138.9551  161.2452 C.ar    1  UNL1        0.0384
     22 C         143.2878  138.7292  160.5653 C.ar    1  UNL1        0.1022
     23 N         143.3275  138.3361  159.1183 N.ar    1  UNL1       -0.2224
     24 C         142.0494  138.1689  158.3512 C.ar    1  UNL1        0.1989
     25 N         140.7316  138.3948  159.0310 N.ar    1  UNL1       -0.2224
     26 C         140.6918  138.7879  160.4781 C.ar    1  UNL1        0.1022
     27 C         142.5421  142.1170  168.9540 C.3     1  UNL1        0.0438
     28 C         141.2963  142.7181  169.5339 C.3     1  UNL1        0.0036
     29 C         140.4882  143.9259  169.9059 C.3     1  UNL1        0.0001
     30 C         139.9464  142.5517  170.1665 C.3     1  UNL1        0.0001
@<TRIPOS>BOND
     1     1     2    1
     2     2     3    2
     3     3     4    1
     4     4     5    1
     5     5     6    1
     6     4     7    1
     7     7     8   ar
     8     8     9   ar
     9     9    21    1
    10    21    22   ar
    11    22    23   ar
    12    23    24   ar
    13    24    25   ar
    14    25    26   ar
    15     9    10   ar
    16    10    11   ar
    17    11    12   ar
    18    12    13    1
    19    13    14    1
    20    14    27    1
    21    27    28    1
    22    28    29    1
    23    29    30    1
    24    14    15    1
    25    15    16    1
    26    16    17    1
    27    17    18    1
    28     6     2    1
    29    12     7   ar
    30    30    28    1
    31    18    15    1
    32    15     4    1
    33    26    21   ar
    34     1    19    1
    35     1    20    1
@<TRIPOS>MOLECULE
*****
 30 35 0 0 0
SMALL
GASTEIGER

@<TRIPOS>ATOM
      1 N         144.2050  138.6101  162.4764 N.pl3   1  UNL1       -0.3133
      2 C         143.5169  138.9519  163.7646 C.2     1  UNL1        0.2770
      3 N         142.0668  139.3011  163.9239 N.2     1  UNL1       -0.2202
      4 C         141.8116  139.5696  165.3775 C.3     1  UNL1        0.1582
      5 C         143.1041  139.3865  166.1165 C.3     1  UNL1        0.2351
      6 O         144.1580  139.0047  165.1196 O.2     1  UNL1       -0.4478
      7 C         140.5982  139.7161  164.5079 C.ar    1  UNL1        0.0357
      8 C         140.7012  139.4782  163.0304 C.ar    1  UNL1        0.0007
      9 C         139.4878  139.6246  162.1609 C.ar    1  UNL1        0.0029
     10 C         138.1714  140.0089  162.7687 C.ar    1  UNL1        0.0032
     11 C         138.0685  140.2467  164.2462 C.ar    1  UNL1        0.0366
     12 C         139.2819  140.1003  165.1158 C.ar    1  UNL1        0.1362
     13 O         139.1789  140.3381  166.5932 O.3     1  UNL1       -0.4792
     14 C         140.3923  140.1917  167.4628 C.3     1  UNL1        0.1726
     15 C         141.7087  139.8075  166.8549 C.3     1  UNL1        0.1174
     16 C         141.3701  139.8483  166.6123 C.3     1  UNL1        0.1502
     17 O         141.7260  139.8054  166.8674 O.3     1  UNL1       -0.3532
     18 C         141.3701  139.8483  166.6123 C.3     1  UNL1        0.1502
     19 H         143.6962  138.6020  161.6336 H       1  UNL1        0.1466
     20 H         145.1655  138.3938  162.4737 H       1  UNL1        0.1466
     21 C         139.5908  139.3868  160.6834 C.ar    1  UNL1        0.0384
     22 C         140.7990  138.7021  160.1164 C.ar    1  UNL1        0.1022
     23 N         140.9019  138.4643  158.6390 N.ar    1  UNL1       -0.2224
     24 C         139.7968  138.9112  157.7285 C.ar    1  UNL1        0.1989
     25 N         138.5886  139.5959  158.2955 N.ar    1  UNL1       -0.2224
     26 C         138.4856  139.8337  159.7730 C.ar    1  UNL1        0.1022
     27 C         140.2893  140.4295  168.9403 C.3     1  UNL1        0.0438
     28 C         140.1951  141.8298  169.4697 C.3     1  UNL1        0.0036
     29 C         140.4463  143.2996  169.3073 C.3     1  UNL1        0.0001
     30 C         139.7808  142.7852  170.5492 C.3     1  UNL1        0.0001
@<TRIPOS>BOND
     1     1     2    1
     2     2     3    2
     3     3     4    1
     4     4     5    1
     5     5     6    1
     6     4     7    1
     7     7     8   ar
     8     8     9   ar
     9     9    21    1
    10    21    22   ar
    11    22    23   ar
    12    23    24   ar
    13    24    25   ar
    14    25    26   ar
    15     9    10   ar
    16    10    11   ar
    17    11    12   ar
    18    12    13    1
    19    13    14    1
    20    14    27    1
    21    27    28    1
    22    28    29    1
    23    29    30    1
    24    14    15    1
    25    15    16    1
    26    16    17    1
    27    17    18    1
    28     6     2    1
    29    12     7   ar
    30    30    28    1
    31    18    15    1
    32    15     4    1
    33    26    21   ar
    34     1    19    1
    35     1    20    1
@<TRIPOS>MOLECULE
*****
 30 35 0 0 0
SMALL
GASTEIGER

@<TRIPOS>ATOM
      1 N         139.6658  144.7034  160.8399 N.pl3   1  UNL1       -0.3133
      2 C         139.7560  144.3600  162.2972 C.2     1  UNL1        0.2770
      3 N         140.7426  143.4183  162.9217 N.2     1  UNL1       -0.2202
      4 C         140.4719  143.3743  164.3965 C.3     1  UNL1        0.1582
      5 C         139.3181  144.2889  164.6834 C.3     1  UNL1        0.2351
      6 O         138.8757  144.8981  163.3860 O.2     1  UNL1       -0.4478
      7 C         141.6099  142.5007  163.9588 C.ar    1  UNL1        0.0357
      8 C         141.9968  142.4423  162.5107 C.ar    1  UNL1        0.0007
      9 C         143.1348  141.5687  162.0730 C.ar    1  UNL1        0.0029
     10 C         143.8860  140.7533  163.0834 C.ar    1  UNL1        0.0032
     11 C         143.4992  140.8116  164.5315 C.ar    1  UNL1        0.0366
     12 C         142.3611  141.6853  164.9692 C.ar    1  UNL1        0.1362
     13 O         141.9743  141.7436  166.4172 O.3     1  UNL1       -0.4792
     14 C         140.8362  142.6173  166.8549 C.3     1  UNL1        0.1726
     15 C         140.0850  143.4326  165.8445 C.3     1  UNL1        0.1174
     16 C         140.4025  143.1889  165.7224 C.3     1  UNL1        0.1502
     17 O         140.0688  143.4451  165.8508 O.3     1  UNL1       -0.3532
     18 C         140.4025  143.1889  165.7224 C.3     1  UNL1        0.1502
     19 H         140.2920  144.2962  160.1986 H       1  UNL1        0.1466
     20 H         138.9804  145.3359  160.5247 H       1  UNL1        0.1466
     21 C         143.5216  141.5104  160.6249 C.ar    1  UNL1        0.0384
     22 C         143.7751  140.1853  159.9691 C.ar    1  UNL1        0.1022
     23 N         144.1619  140.1270  158.5210 N.ar    1  UNL1       -0.2224
     24 C         144.2954  141.3936  157.7287 C.ar    1  UNL1        0.1989
     25 N         144.0420  142.7186  158.3845 N.ar    1  UNL1       -0.2224
     26 C         143.6551  142.7770  159.8326 C.ar    1  UNL1        0.1022
     27 C         140.4494  142.6756  168.3030 C.3     1  UNL1        0.0438
     28 C         140.0931  141.4160  169.0355 C.3     1  UNL1        0.0036
     29 C         139.1487  140.6436  169.9081 C.3     1  UNL1        0.0001
     30 C         140.4204  140.0068  169.4315 C.3     1  UNL1        0.0001
@<TRIPOS>BOND
     1     1     2    1
     2     2     3    2
     3     3     4    1
     4     4     5    1
     5     5     6    1
     6     4     7    1
     7     7     8   ar
     8     8     9   ar
     9     9    21    1
    10    21    22   ar
    11    22    23   ar
    12    23    24   ar
    13    24    25   ar
    14    25    26   ar
    15     9    10   ar
    16    10    11   ar
    17    11    12   ar
    18    12    13    1
    19    13    14    1
    20    14    27    1
    21    27    28    1
    22    28    29    1
    23    29    30    1
    24    14    15    1
    25    15    16    1
    26    16    17    1
    27    17    18    1
    28     6     2    1
    29    12     7   ar
    30    30    28    1
    31    18    15    1
    32    15     4    1
    33    26    21   ar
    34     1    19    1
    35     1    20    1
