@<TRIPOS>MOLECULE
*****
 34 38 0 0 0
SMALL
GASTEIGER

@<TRIPOS>ATOM
      1 C         139.1825  142.6202  164.3578 C.ar    1  UNL1        0.1015
      2 C         138.6747  143.9518  164.8255 C.ar    1  UNL1        0.0240
      3 C         138.8024  145.1562  163.9405 C.ar    1  UNL1        0.0404
      4 C         139.4378  145.0288  162.5878 C.ar    1  UNL1        0.1639
      5 N         139.6999  146.0318  161.5035 N.ar    1  UNL1       -0.2234
      6 C         140.3696  145.3200  160.3657 C.ar    1  UNL1        0.1197
      7 C         140.5215  143.8771  160.7467 C.ar    1  UNL1        0.1035
      8 N         139.9456  143.6972  162.1200 N.ar    1  UNL1       -0.2107
      9 N         139.8180  142.4929  163.0050 N.ar    1  UNL1       -0.1638
     10 C         139.6151  140.1838  167.4605 C.ar    1  UNL1        0.1058
     11 C         138.7997  139.0071  167.0128 C.ar    1  UNL1        0.0183
     12 C         138.1119  139.0347  165.6801 C.ar    1  UNL1        0.0014
     13 C         138.2395  140.2391  164.7951 C.ar    1  UNL1        0.0016
     14 C         139.0549  141.4158  165.2428 C.ar    1  UNL1        0.0206
     15 C         139.7427  141.3882  166.5755 C.ar    1  UNL1        0.0199
     16 C         140.9907  140.1286  170.1260 C.3     1  UNL1        0.1816
     17 S         140.3029  140.1562  168.7932 S.O2    1  UNL1        0.0104
     18 O         139.0005  139.8225  169.4585 O.2     1  UNL1       -0.1686
     19 O         141.6053  140.4899  168.1280 O.2     1  UNL1       -0.1686
     20 C         141.1406  142.8028  159.9026 C.ar    1  UNL1        0.0193
     21 C         140.8433  142.7384  158.4337 C.ar    1  UNL1        0.0017
     22 C         141.4624  141.6641  157.5896 C.ar    1  UNL1        0.0046
     23 C         142.3787  140.6541  158.2143 C.ar    1  UNL1        0.0536
     24 C         142.6760  140.7185  159.6831 C.ar    1  UNL1        0.0046
     25 C         142.0569  141.7928  160.5272 C.ar    1  UNL1        0.0017
     26 C         142.9978  139.5798  157.3702 C.2     1  UNL1        0.2491
     27 O         144.4709  139.6031  157.0882 O.2     1  UNL1       -0.2699
     28 N         142.1438  138.4822  156.8080 N.am    1  UNL1       -0.2735
     29 C         142.6191  137.3461  155.9517 C.3     1  UNL1        0.0964
     30 C         141.4336  136.4898  155.6180 C.3     1  UNL1        0.0525
     31 C         140.2257  137.0966  156.2681 C.3     1  UNL1        0.1320
     32 O         138.8248  136.5653  156.1955 O.3     1  UNL1       -0.3827
     33 C         140.6647  138.3280  157.0037 C.3     1  UNL1        0.1228
     34 H         138.8126  135.7581  155.6577 H       1  UNL1        0.2104
@<TRIPOS>BOND
     1    16    17    1
     2    17    18    2
     3    17    19    2
     4    17    10    1
     5    10    11   ar
     6    11    12   ar
     7    12    13   ar
     8    13    14   ar
     9    14     1    1
    10     1     2   ar
    11     2     3   ar
    12     3     4   ar
    13     4     5   ar
    14     5     6   ar
    15     6     7   ar
    16     7    20    1
    17    20    21   ar
    18    21    22   ar
    19    22    23   ar
    20    23    26    1
    21    26    27    2
    22    26    28   am
    23    28    29    1
    24    29    30    1
    25    30    31    1
    26    31    32    1
    27    31    33    1
    28    23    24   ar
    29    24    25   ar
    30     7     8   ar
    31     8     9   ar
    32    14    15   ar
    33    15    10   ar
    34     9     1   ar
    35     8     4   ar
    36    25    20   ar
    37    33    28    1
    38    32    34    1
@<TRIPOS>MOLECULE
*****
 34 38 0 0 0
SMALL
GASTEIGER

@<TRIPOS>ATOM
      1 C         140.7322  142.7861  164.8667 C.ar    1  UNL1        0.1015
      2 C         139.6258  143.6527  165.3910 C.ar    1  UNL1        0.0240
      3 C         139.0463  144.7334  164.5273 C.ar    1  UNL1        0.0404
      4 C         139.5731  144.9476  163.1393 C.ar    1  UNL1        0.1639
      5 N         139.2022  145.9266  162.0649 N.ar    1  UNL1       -0.2234
      6 C         140.0794  145.6649  160.8766 C.ar    1  UNL1        0.1197
      7 C         140.9924  144.5244  161.2166 C.ar    1  UNL1        0.1035
      8 N         140.6795  144.0811  162.6150 N.ar    1  UNL1       -0.2107
      9 N         141.2590  143.0003  163.4787 N.ar    1  UNL1       -0.1638
     10 C         141.3391  140.3855  167.9681 C.ar    1  UNL1        0.1058
     11 C         142.4710  139.5437  167.4579 C.ar    1  UNL1        0.0183
     12 C         143.0232  139.7827  166.0838 C.ar    1  UNL1        0.0014
     13 C         142.4436  140.8635  165.2201 C.ar    1  UNL1        0.0016
     14 C         141.3118  141.7053  165.7304 C.ar    1  UNL1        0.0206
     15 C         140.7596  141.4663  167.1044 C.ar    1  UNL1        0.0199
     16 C         140.2346  139.9076  170.7162 C.3     1  UNL1        0.1816
     17 S         140.7869  140.1465  169.3422 S.O2    1  UNL1        0.0104
     18 O         139.4558  139.7957  168.7462 O.2     1  UNL1       -0.1686
     19 O         142.1179  140.4974  169.9382 O.2     1  UNL1       -0.1686
     20 C         142.0353  143.9312  160.3162 C.ar    1  UNL1        0.0193
     21 C         141.9844  144.1872  158.8391 C.ar    1  UNL1        0.0017
     22 C         143.0272  143.5940  157.9388 C.ar    1  UNL1        0.0046
     23 C         144.1210  142.7449  158.5154 C.ar    1  UNL1        0.0536
     24 C         144.1719  142.4890  159.9926 C.ar    1  UNL1        0.0046
     25 C         143.1291  143.0821  160.8929 C.ar    1  UNL1        0.0017
     26 C         145.1638  142.1518  157.6151 C.2     1  UNL1        0.2491
     27 O         146.5392  142.7484  157.5656 O.2     1  UNL1       -0.2699
     28 N         144.8313  140.9620  156.7642 N.am    1  UNL1       -0.2735
     29 C         145.7654  140.2644  155.8205 C.3     1  UNL1        0.0964
     30 C         145.0177  139.1323  155.1807 C.3     1  UNL1        0.0525
     31 C         143.6215  139.1303  155.7291 C.3     1  UNL1        0.1320
     32 O         142.5319  138.1666  155.3631 O.3     1  UNL1       -0.3827
     33 C         143.5063  140.2612  156.7078 C.3     1  UNL1        0.1228
     34 H         142.8665  137.5335  154.7088 H       1  UNL1        0.2104
@<TRIPOS>BOND
     1    16    17    1
     2    17    18    2
     3    17    19    2
     4    17    10    1
     5    10    11   ar
     6    11    12   ar
     7    12    13   ar
     8    13    14   ar
     9    14     1    1
    10     1     2   ar
    11     2     3   ar
    12     3     4   ar
    13     4     5   ar
    14     5     6   ar
    15     6     7   ar
    16     7    20    1
    17    20    21   ar
    18    21    22   ar
    19    22    23   ar
    20    23    26    1
    21    26    27    2
    22    26    28   am
    23    28    29    1
    24    29    30    1
    25    30    31    1
    26    31    32    1
    27    31    33    1
    28    23    24   ar
    29    24    25   ar
    30     7     8   ar
    31     8     9   ar
    32    14    15   ar
    33    15    10   ar
    34     9     1   ar
    35     8     4   ar
    36    25    20   ar
    37    33    28    1
    38    32    34    1
@<TRIPOS>MOLECULE
*****
 34 38 0 0 0
SMALL
GASTEIGER

@<TRIPOS>ATOM
      1 C         139.1717  142.5901  164.2691 C.ar    1  UNL1        0.1015
      2 C         138.4562  143.8149  164.7567 C.ar    1  UNL1        0.0240
      3 C         138.5045  145.0811  163.9539 C.ar    1  UNL1        0.0404
      4 C         139.2681  145.1223  162.6635 C.ar    1  UNL1        0.1639
      5 N         139.4928  146.2188  161.6648 N.ar    1  UNL1       -0.2234
      6 C         140.3471  145.6716  160.5600 C.ar    1  UNL1        0.1197
      7 C         140.6504  144.2369  160.8758 C.ar    1  UNL1        0.1035
      8 N         139.9836  143.8975  162.1759 N.ar    1  UNL1       -0.2107
      9 N         139.9353  142.6313  162.9787 N.ar    1  UNL1       -0.1638
     10 C         139.6481  140.0262  167.2606 C.ar    1  UNL1        0.1058
     11 C         139.0272  138.7915  166.6775 C.ar    1  UNL1        0.0183
     12 C         138.4544  138.8230  165.2915 C.ar    1  UNL1        0.0014
     13 C         138.5026  140.0892  164.4887 C.ar    1  UNL1        0.0016
     14 C         139.1235  141.3238  165.0719 C.ar    1  UNL1        0.0206
     15 C         139.6963  141.2923  166.4578 C.ar    1  UNL1        0.0199
     16 C         140.7936  139.9631  170.0326 C.3     1  UNL1        0.1816
     17 S         140.2209  139.9946  168.6466 S.O2    1  UNL1        0.0104
     18 O         138.8376  139.8816  169.2157 O.2     1  UNL1       -0.1686
     19 O         141.6041  140.1077  168.0776 O.2     1  UNL1       -0.1686
     20 C         141.4757  143.3052  160.0387 C.ar    1  UNL1        0.0193
     21 C         142.7874  142.7941  160.5567 C.ar    1  UNL1        0.0017
     22 C         143.6126  141.8625  159.7195 C.ar    1  UNL1        0.0046
     23 C         143.1263  141.4418  158.3643 C.ar    1  UNL1        0.0536
     24 C         141.8146  141.9529  157.8463 C.ar    1  UNL1        0.0046
     25 C         140.9894  142.8846  158.6835 C.ar    1  UNL1        0.0017
     26 C         143.9516  140.5101  157.5272 C.2     1  UNL1        0.2491
     27 O         143.7248  139.0296  157.6076 O.2     1  UNL1       -0.2699
     28 N         145.0036  141.0590  156.6096 N.am    1  UNL1       -0.2735
     29 C         145.9015  140.2549  155.7168 C.3     1  UNL1        0.0964
     30 C         146.7953  141.2073  154.9792 C.3     1  UNL1        0.0525
     31 C         146.4497  142.6001  155.4161 C.3     1  UNL1        0.1320
     32 O         147.0977  143.8627  154.9306 O.3     1  UNL1       -0.3827
     33 C         145.3424  142.5084  156.4238 C.3     1  UNL1        0.1228
     34 H         147.7849  143.6446  154.2816 H       1  UNL1        0.2104
@<TRIPOS>BOND
     1    16    17    1
     2    17    18    2
     3    17    19    2
     4    17    10    1
     5    10    11   ar
     6    11    12   ar
     7    12    13   ar
     8    13    14   ar
     9    14     1    1
    10     1     2   ar
    11     2     3   ar
    12     3     4   ar
    13     4     5   ar
    14     5     6   ar
    15     6     7   ar
    16     7    20    1
    17    20    21   ar
    18    21    22   ar
    19    22    23   ar
    20    23    26    1
    21    26    27    2
    22    26    28   am
    23    28    29    1
    24    29    30    1
    25    30    31    1
    26    31    32    1
    27    31    33    1
    28    23    24   ar
    29    24    25   ar
    30     7     8   ar
    31     8     9   ar
    32    14    15   ar
    33    15    10   ar
    34     9     1   ar
    35     8     4   ar
    36    25    20   ar
    37    33    28    1
    38    32    34    1
@<TRIPOS>MOLECULE
*****
 34 38 0 0 0
SMALL
GASTEIGER

@<TRIPOS>ATOM
      1 C         141.1123  135.4697  154.6274 C.ar    1  UNL1        0.1015
      2 C         140.3626  135.9269  153.4113 C.ar    1  UNL1        0.0240
      3 C         139.5504  137.1870  153.4608 C.ar    1  UNL1        0.0404
      4 C         139.4880  137.9899  154.7263 C.ar    1  UNL1        0.1639
      5 N         138.7761  139.2641  155.0725 N.ar    1  UNL1       -0.2234
      6 C         139.0859  139.5942  156.5026 C.ar    1  UNL1        0.1197
      7 C         139.9892  138.5242  157.0401 C.ar    1  UNL1        0.1035
      8 N         140.2378  137.5327  155.9423 N.ar    1  UNL1       -0.2107
      9 N         141.0499  136.2726  155.8929 N.ar    1  UNL1       -0.1638
     10 C         143.6314  132.5883  155.6771 C.ar    1  UNL1        0.1058
     11 C         143.5488  131.6892  154.4791 C.ar    1  UNL1        0.0183
     12 C         142.6541  132.0503  153.3306 C.ar    1  UNL1        0.0014
     13 C         141.8419  133.3105  153.3801 C.ar    1  UNL1        0.0016
     14 C         141.9245  134.2095  154.5779 C.ar    1  UNL1        0.0206
     15 C         142.8192  133.8484  155.7264 C.ar    1  UNL1        0.0199
     16 C         145.4208  131.8660  157.9741 C.3     1  UNL1        0.1816
     17 S         144.5261  132.2272  156.8256 S.O2    1  UNL1        0.0104
     18 O         143.9066  133.3160  157.6506 O.2     1  UNL1       -0.1686
     19 O         145.1456  131.1383  156.0006 O.2     1  UNL1       -0.1686
     20 C         140.5463  138.4573  158.4312 C.ar    1  UNL1        0.0193
     21 C         141.9823  138.0815  158.6469 C.ar    1  UNL1        0.0017
     22 C         142.5393  138.0146  160.0380 C.ar    1  UNL1        0.0046
     23 C         141.6604  138.3237  161.2135 C.ar    1  UNL1        0.0536
     24 C         140.2244  138.6995  160.9979 C.ar    1  UNL1        0.0046
     25 C         139.6673  138.7664  159.6068 C.ar    1  UNL1        0.0017
     26 C         142.2174  138.2568  162.6046 C.2     1  UNL1        0.2491
     27 O         141.6578  137.2743  163.5902 O.2     1  UNL1       -0.2699
     28 N         143.3341  139.1726  163.0102 N.am    1  UNL1       -0.2735
     29 C         143.9893  139.2207  164.3587 C.3     1  UNL1        0.0964
     30 C         145.0517  140.2788  164.3203 C.3     1  UNL1        0.0525
     31 C         145.0532  140.8847  162.9481 C.3     1  UNL1        0.1320
     32 O         145.9575  141.9817  162.4697 O.3     1  UNL1       -0.3827
     33 C         143.9917  140.2010  162.1384 C.3     1  UNL1        0.1228
     34 H         146.5518  142.2474  163.1887 H       1  UNL1        0.2104
@<TRIPOS>BOND
     1    16    17    1
     2    17    18    2
     3    17    19    2
     4    17    10    1
     5    10    11   ar
     6    11    12   ar
     7    12    13   ar
     8    13    14   ar
     9    14     1    1
    10     1     2   ar
    11     2     3   ar
    12     3     4   ar
    13     4     5   ar
    14     5     6   ar
    15     6     7   ar
    16     7    20    1
    17    20    21   ar
    18    21    22   ar
    19    22    23   ar
    20    23    26    1
    21    26    27    2
    22    26    28   am
    23    28    29    1
    24    29    30    1
    25    30    31    1
    26    31    32    1
    27    31    33    1
    28    23    24   ar
    29    24    25   ar
    30     7     8   ar
    31     8     9   ar
    32    14    15   ar
    33    15    10   ar
    34     9     1   ar
    35     8     4   ar
    36    25    20   ar
    37    33    28    1
    38    32    34    1
@<TRIPOS>MOLECULE
*****
 34 38 0 0 0
SMALL
GASTEIGER

@<TRIPOS>ATOM
      1 C         142.0327  143.3124  159.0840 C.ar    1  UNL1        0.1015
      2 C         141.5105  144.4793  158.2995 C.ar    1  UNL1        0.0240
      3 C         140.6347  145.4989  158.9653 C.ar    1  UNL1        0.0404
      4 C         140.2811  145.3516  160.4155 C.ar    1  UNL1        0.1639
      5 N         139.4446  146.1913  161.3350 N.ar    1  UNL1       -0.2234
      6 C         139.4499  145.5432  162.6878 C.ar    1  UNL1        0.1197
      7 C         140.2896  144.3031  162.6043 C.ar    1  UNL1        0.1035
      8 N         140.8033  144.1847  161.2000 N.ar    1  UNL1       -0.2107
      9 N         141.6791  143.1651  160.5343 N.ar    1  UNL1       -0.1638
     10 C         145.0995  141.6858  157.1607 C.ar    1  UNL1        0.1058
     11 C         144.6604  140.2534  157.0868 C.ar    1  UNL1        0.0183
     12 C         143.3453  139.8407  157.6786 C.ar    1  UNL1        0.0014
     13 C         142.4694  140.8604  158.3444 C.ar    1  UNL1        0.0016
     14 C         142.9086  142.2927  158.4183 C.ar    1  UNL1        0.0206
     15 C         144.2237  142.7054  157.8264 C.ar    1  UNL1        0.0199
     16 C         147.7297  142.5113  155.9770 C.3     1  UNL1        0.1816
     17 S         146.4146  142.0985  156.5689 S.O2    1  UNL1        0.0104
     18 O         146.7135  142.9068  157.7966 O.2     1  UNL1       -0.1686
     19 O         146.1157  141.2903  155.3411 O.2     1  UNL1       -0.1686
     20 C         140.5669  143.3488  163.7280 C.ar    1  UNL1        0.0193
     21 C         141.8860  143.3927  164.4408 C.ar    1  UNL1        0.0017
     22 C         142.1634  142.4384  165.5644 C.ar    1  UNL1        0.0046
     23 C         141.1217  141.4404  165.9753 C.ar    1  UNL1        0.0536
     24 C         139.8026  141.3966  165.2624 C.ar    1  UNL1        0.0046
     25 C         139.5253  142.3508  164.1388 C.ar    1  UNL1        0.0017
     26 C         141.3991  140.4862  167.0989 C.2     1  UNL1        0.2491
     27 O         142.0745  139.1761  166.8208 O.2     1  UNL1       -0.2699
     28 N         141.0009  140.8420  168.5006 N.am    1  UNL1       -0.2735
     29 C         141.2120  139.9936  169.7194 C.3     1  UNL1        0.0964
     30 C         140.6634  140.7361  170.9017 C.3     1  UNL1        0.0525
     31 C         140.1132  142.0434  170.4135 C.3     1  UNL1        0.1320
     32 O         139.4678  143.0997  171.2606 O.3     1  UNL1       -0.3827
     33 C         140.3219  142.1089  168.9296 C.3     1  UNL1        0.1228
     34 H         139.4574  142.8101  172.1863 H       1  UNL1        0.2104
@<TRIPOS>BOND
     1    16    17    1
     2    17    18    2
     3    17    19    2
     4    17    10    1
     5    10    11   ar
     6    11    12   ar
     7    12    13   ar
     8    13    14   ar
     9    14     1    1
    10     1     2   ar
    11     2     3   ar
    12     3     4   ar
    13     4     5   ar
    14     5     6   ar
    15     6     7   ar
    16     7    20    1
    17    20    21   ar
    18    21    22   ar
    19    22    23   ar
    20    23    26    1
    21    26    27    2
    22    26    28   am
    23    28    29    1
    24    29    30    1
    25    30    31    1
    26    31    32    1
    27    31    33    1
    28    23    24   ar
    29    24    25   ar
    30     7     8   ar
    31     8     9   ar
    32    14    15   ar
    33    15    10   ar
    34     9     1   ar
    35     8     4   ar
    36    25    20   ar
    37    33    28    1
    38    32    34    1
@<TRIPOS>MOLECULE
*****
 34 38 0 0 0
SMALL
GASTEIGER

@<TRIPOS>ATOM
      1 C         142.0260  143.4031  159.1293 C.ar    1  UNL1        0.1015
      2 C         141.4815  144.5658  158.3537 C.ar    1  UNL1        0.0240
      3 C         140.5851  145.5625  159.0268 C.ar    1  UNL1        0.0404
      4 C         140.2333  145.3964  160.4755 C.ar    1  UNL1        0.1639
      5 N         139.3795  146.2119  161.4009 N.ar    1  UNL1       -0.2234
      6 C         139.3964  145.5531  162.7483 C.ar    1  UNL1        0.1197
      7 C         140.2606  144.3306  162.6557 C.ar    1  UNL1        0.1035
      8 N         140.7778  144.2337  161.2511 N.ar    1  UNL1       -0.2107
      9 N         141.6741  143.2370  160.5780 N.ar    1  UNL1       -0.1638
     10 C         143.3430  140.0050  157.5582 C.ar    1  UNL1        0.1058
     11 C         144.7152  140.4128  157.1101 C.ar    1  UNL1        0.0183
     12 C         145.1910  141.8174  157.3352 C.ar    1  UNL1        0.0014
     13 C         144.2946  142.8142  158.0082 C.ar    1  UNL1        0.0016
     14 C         142.9224  142.4063  158.4562 C.ar    1  UNL1        0.0206
     15 C         142.4466  141.0017  158.2312 C.ar    1  UNL1        0.0199
     16 C         142.3914  137.1957  157.1081 C.3     1  UNL1        0.1816
     17 S         142.8672  138.6003  157.3331 S.O2    1  UNL1        0.0104
     18 O         143.2668  138.2406  158.7334 O.2     1  UNL1       -0.1686
     19 O         142.4675  138.9601  155.9328 O.2     1  UNL1       -0.1686
     20 C         140.5558  143.3729  163.7719 C.ar    1  UNL1        0.0193
     21 C         139.5087  142.3963  164.2188 C.ar    1  UNL1        0.0017
     22 C         139.8038  141.4386  165.3349 C.ar    1  UNL1        0.0046
     23 C         141.1461  141.4576  166.0042 C.ar    1  UNL1        0.0536
     24 C         142.1932  142.4342  165.5573 C.ar    1  UNL1        0.0046
     25 C         141.8980  143.3919  164.4412 C.ar    1  UNL1        0.0017
     26 C         141.4413  140.4999  167.1204 C.2     1  UNL1        0.2491
     27 O         142.1389  139.2038  166.8317 O.2     1  UNL1       -0.2699
     28 N         141.0388  140.8384  168.5252 N.am    1  UNL1       -0.2735
     29 C         141.2659  139.9847  169.7374 C.3     1  UNL1        0.0964
     30 C         140.7060  140.7087  170.9257 C.3     1  UNL1        0.0525
     31 C         140.1328  142.0099  170.4480 C.3     1  UNL1        0.1320
     32 O         139.4702  143.0486  171.3037 O.3     1  UNL1       -0.3827
     33 C         140.3384  142.0901  168.9643 C.3     1  UNL1        0.1228
     34 H         139.4659  142.7520  172.2272 H       1  UNL1        0.2104
@<TRIPOS>BOND
     1    16    17    1
     2    17    18    2
     3    17    19    2
     4    17    10    1
     5    10    11   ar
     6    11    12   ar
     7    12    13   ar
     8    13    14   ar
     9    14     1    1
    10     1     2   ar
    11     2     3   ar
    12     3     4   ar
    13     4     5   ar
    14     5     6   ar
    15     6     7   ar
    16     7    20    1
    17    20    21   ar
    18    21    22   ar
    19    22    23   ar
    20    23    26    1
    21    26    27    2
    22    26    28   am
    23    28    29    1
    24    29    30    1
    25    30    31    1
    26    31    32    1
    27    31    33    1
    28    23    24   ar
    29    24    25   ar
    30     7     8   ar
    31     8     9   ar
    32    14    15   ar
    33    15    10   ar
    34     9     1   ar
    35     8     4   ar
    36    25    20   ar
    37    33    28    1
    38    32    34    1
@<TRIPOS>MOLECULE
*****
 34 38 0 0 0
SMALL
GASTEIGER

@<TRIPOS>ATOM
      1 C         141.5110  141.2927  163.9157 C.ar    1  UNL1        0.1015
      2 C         142.2528  142.4656  164.4848 C.ar    1  UNL1        0.0240
      3 C         143.2533  143.2004  163.6429 C.ar    1  UNL1        0.0404
      4 C         143.5122  142.7623  162.2318 C.ar    1  UNL1        0.1639
      5 N         144.4330  143.2877  161.1706 N.ar    1  UNL1       -0.2234
      6 C         144.2602  142.4394  159.9456 C.ar    1  UNL1        0.1197
      7 C         143.2327  141.3897  160.2498 C.ar    1  UNL1        0.1035
      8 N         142.7704  141.5893  161.6628 N.ar    1  UNL1       -0.2107
      9 N         141.7699  140.8545  162.5047 N.ar    1  UNL1       -0.1638
     10 C         139.4882  140.0244  167.0859 C.ar    1  UNL1        0.1058
     11 C         138.5093  139.0881  166.4416 C.ar    1  UNL1        0.0183
     12 C         138.5309  138.8867  164.9553 C.ar    1  UNL1        0.0014
     13 C         139.5315  139.6216  164.1134 C.ar    1  UNL1        0.0016
     14 C         140.5104  140.5578  164.7577 C.ar    1  UNL1        0.0206
     15 C         140.4888  140.7592  166.2439 C.ar    1  UNL1        0.0199
     16 C         139.4449  140.4273  170.0584 C.3     1  UNL1        0.1816
     17 S         139.4666  140.2259  168.5721 S.O2    1  UNL1        0.0104
     18 O         138.3212  139.2640  168.6858 O.2     1  UNL1       -0.1686
     19 O         140.6119  141.1878  168.4585 O.2     1  UNL1       -0.1686
     20 C         142.7520  140.3271  159.3067 C.ar    1  UNL1        0.0193
     21 C         143.4590  140.1062  158.0023 C.ar    1  UNL1        0.0017
     22 C         142.9782  139.0436  157.0591 C.ar    1  UNL1        0.0046
     23 C         141.7905  138.2017  157.4202 C.ar    1  UNL1        0.0536
     24 C         141.0834  138.4225  158.7246 C.ar    1  UNL1        0.0046
     25 C         141.5642  139.4852  159.6678 C.ar    1  UNL1        0.0017
     26 C         141.3097  137.1390  156.4770 C.2     1  UNL1        0.2491
     27 O         140.1152  137.3937  155.6062 O.2     1  UNL1       -0.2699
     28 N         142.0234  135.8217  156.4047 N.am    1  UNL1       -0.2735
     29 C         141.6604  134.6700  155.5149 C.3     1  UNL1        0.0964
     30 C         142.6380  133.5613  155.7698 C.3     1  UNL1        0.0525
     31 C         143.6053  134.0278  156.8171 C.3     1  UNL1        0.1320
     32 O         144.7511  133.2362  157.3742 O.3     1  UNL1       -0.3827
     33 C         143.2254  135.4248  157.2095 C.3     1  UNL1        0.1228
     34 H         144.7768  132.3634  156.9517 H       1  UNL1        0.2104
@<TRIPOS>BOND
     1    16    17    1
     2    17    18    2
     3    17    19    2
     4    17    10    1
     5    10    11   ar
     6    11    12   ar
     7    12    13   ar
     8    13    14   ar
     9    14     1    1
    10     1     2   ar
    11     2     3   ar
    12     3     4   ar
    13     4     5   ar
    14     5     6   ar
    15     6     7   ar
    16     7    20    1
    17    20    21   ar
    18    21    22   ar
    19    22    23   ar
    20    23    26    1
    21    26    27    2
    22    26    28   am
    23    28    29    1
    24    29    30    1
    25    30    31    1
    26    31    32    1
    27    31    33    1
    28    23    24   ar
    29    24    25   ar
    30     7     8   ar
    31     8     9   ar
    32    14    15   ar
    33    15    10   ar
    34     9     1   ar
    35     8     4   ar
    36    25    20   ar
    37    33    28    1
    38    32    34    1
@<TRIPOS>MOLECULE
*****
 34 38 0 0 0
SMALL
GASTEIGER

@<TRIPOS>ATOM
      1 C         139.3429  142.4742  163.8602 C.ar    1  UNL1        0.1015
      2 C         139.3610  143.9250  164.2409 C.ar    1  UNL1        0.0240
      3 C         139.5366  144.9754  163.1846 C.ar    1  UNL1        0.0404
      4 C         139.6942  144.5749  161.7476 C.ar    1  UNL1        0.1639
      5 N         139.8828  145.3802  160.4962 N.ar    1  UNL1       -0.2234
      6 C         139.9813  144.4271  159.3421 C.ar    1  UNL1        0.1197
      7 C         139.8536  143.0328  159.8803 C.ar    1  UNL1        0.1035
      8 N         139.6762  143.1242  161.3670 N.ar    1  UNL1       -0.2107
      9 N         139.5005  142.0738  162.4233 N.ar    1  UNL1       -0.1638
     10 C         139.6852  140.5162  167.2952 C.ar    1  UNL1        0.1058
     11 C         138.8159  139.3230  167.0292 C.ar    1  UNL1        0.0183
     12 C         138.1223  139.1803  165.7069 C.ar    1  UNL1        0.0014
     13 C         138.2979  140.2307  164.6506 C.ar    1  UNL1        0.0016
     14 C         139.1672  141.4238  164.9166 C.ar    1  UNL1        0.0206
     15 C         139.8608  141.5666  166.2389 C.ar    1  UNL1        0.0199
     16 C         141.0725  140.8017  169.9398 C.3     1  UNL1        0.1816
     17 S         140.3788  140.6589  168.6175 S.O2    1  UNL1        0.0104
     18 O         141.3384  141.6379  168.0085 O.2     1  UNL1       -0.1686
     19 O         139.4193  139.6800  169.2265 O.2     1  UNL1       -0.1686
     20 C         139.8959  141.7690  159.0735 C.ar    1  UNL1        0.0193
     21 C         140.0916  141.8338  157.5877 C.ar    1  UNL1        0.0017
     22 C         140.1339  140.5700  156.7809 C.ar    1  UNL1        0.0046
     23 C         139.9805  139.2413  157.4598 C.ar    1  UNL1        0.0536
     24 C         139.7847  139.1764  158.9456 C.ar    1  UNL1        0.0046
     25 C         139.7425  140.4403  159.7524 C.ar    1  UNL1        0.0017
     26 C         140.0228  137.9775  156.6530 C.2     1  UNL1        0.2491
     27 O         138.7653  137.1933  156.4211 O.2     1  UNL1       -0.2699
     28 N         141.3225  137.4978  156.0781 N.am    1  UNL1       -0.2735
     29 C         141.5189  136.2593  155.2550 C.3     1  UNL1        0.0964
     30 C         142.9719  136.1686  154.8935 C.3     1  UNL1        0.0525
     31 C         143.6735  137.3510  155.4932 C.3     1  UNL1        0.1320
     32 O         145.1374  137.6580  155.3806 O.3     1  UNL1       -0.3827
     33 C         142.6541  138.1725  156.2253 C.3     1  UNL1        0.1228
     34 H         145.5727  136.9690  154.8545 H       1  UNL1        0.2104
@<TRIPOS>BOND
     1    16    17    1
     2    17    18    2
     3    17    19    2
     4    17    10    1
     5    10    11   ar
     6    11    12   ar
     7    12    13   ar
     8    13    14   ar
     9    14     1    1
    10     1     2   ar
    11     2     3   ar
    12     3     4   ar
    13     4     5   ar
    14     5     6   ar
    15     6     7   ar
    16     7    20    1
    17    20    21   ar
    18    21    22   ar
    19    22    23   ar
    20    23    26    1
    21    26    27    2
    22    26    28   am
    23    28    29    1
    24    29    30    1
    25    30    31    1
    26    31    32    1
    27    31    33    1
    28    23    24   ar
    29    24    25   ar
    30     7     8   ar
    31     8     9   ar
    32    14    15   ar
    33    15    10   ar
    34     9     1   ar
    35     8     4   ar
    36    25    20   ar
    37    33    28    1
    38    32    34    1
@<TRIPOS>MOLECULE
*****
 34 38 0 0 0
SMALL
GASTEIGER

@<TRIPOS>ATOM
      1 C         143.7067  137.5019  155.6384 C.ar    1  UNL1        0.1015
      2 C         144.4240  138.4015  154.6761 C.ar    1  UNL1        0.0240
      3 C         144.8172  139.7869  155.0954 C.ar    1  UNL1        0.0404
      4 C         144.4931  140.2728  156.4770 C.ar    1  UNL1        0.1639
      5 N         144.7528  141.5784  157.1685 N.ar    1  UNL1       -0.2234
      6 C         144.1958  141.4857  158.5582 C.ar    1  UNL1        0.1197
      7 C         143.5920  140.1228  158.7255 C.ar    1  UNL1        0.1035
      8 N         143.7757  139.3732  157.4393 N.ar    1  UNL1       -0.2107
      9 N         143.3825  137.9878  157.0200 N.ar    1  UNL1       -0.1638
     10 C         143.3212  133.5520  155.6363 C.ar    1  UNL1        0.1058
     11 C         142.5270  133.3454  154.3806 C.ar    1  UNL1        0.0183
     12 C         142.1260  134.5242  153.5442 C.ar    1  UNL1        0.0014
     13 C         142.5193  135.9097  153.9635 C.ar    1  UNL1        0.0016
     14 C         143.3134  136.1164  155.2191 C.ar    1  UNL1        0.0206
     15 C         143.7144  134.9375  156.0555 C.ar    1  UNL1        0.0199
     16 C         144.1231  131.1943  157.3090 C.3     1  UNL1        0.1816
     17 S         143.7221  132.3732  156.4726 S.O2    1  UNL1        0.0104
     18 O         142.9339  131.4673  155.5737 O.2     1  UNL1       -0.1686
     19 O         144.5103  133.2790  157.3716 O.2     1  UNL1       -0.1686
     20 C         142.9221  139.6011  159.9620 C.ar    1  UNL1        0.0193
     21 C         143.6171  139.6948  161.2880 C.ar    1  UNL1        0.0017
     22 C         142.9472  139.1731  162.5245 C.ar    1  UNL1        0.0046
     23 C         141.5822  138.5576  162.4352 C.ar    1  UNL1        0.0536
     24 C         140.8872  138.4638  161.1092 C.ar    1  UNL1        0.0046
     25 C         141.5572  138.9855  159.8727 C.ar    1  UNL1        0.0017
     26 C         140.9123  138.0359  163.6717 C.2     1  UNL1        0.2491
     27 O         141.3351  136.7205  164.2555 O.2     1  UNL1       -0.2699
     28 N         139.8195  138.8295  164.3243 N.am    1  UNL1       -0.2735
     29 C         139.0618  138.4379  165.5582 C.3     1  UNL1        0.0964
     30 C         138.0666  139.5205  165.8541 C.3     1  UNL1        0.0525
     31 C         138.2093  140.5812  164.8031 C.3     1  UNL1        0.1320
     32 O         137.4091  141.8468  164.7133 O.3     1  UNL1       -0.3827
     33 C         139.2927  140.1541  163.8576 C.3     1  UNL1        0.1228
     34 H         136.7746  141.8808  165.4463 H       1  UNL1        0.2104
@<TRIPOS>BOND
     1    16    17    1
     2    17    18    2
     3    17    19    2
     4    17    10    1
     5    10    11   ar
     6    11    12   ar
     7    12    13   ar
     8    13    14   ar
     9    14     1    1
    10     1     2   ar
    11     2     3   ar
    12     3     4   ar
    13     4     5   ar
    14     5     6   ar
    15     6     7   ar
    16     7    20    1
    17    20    21   ar
    18    21    22   ar
    19    22    23   ar
    20    23    26    1
    21    26    27    2
    22    26    28   am
    23    28    29    1
    24    29    30    1
    25    30    31    1
    26    31    32    1
    27    31    33    1
    28    23    24   ar
    29    24    25   ar
    30     7     8   ar
    31     8     9   ar
    32    14    15   ar
    33    15    10   ar
    34     9     1   ar
    35     8     4   ar
    36    25    20   ar
    37    33    28    1
    38    32    34    1
