@<TRIPOS>MOLECULE
*****
 27 30 0 0 0
SMALL
GASTEIGER

@<TRIPOS>ATOM
      1 C         144.1765  139.4645  163.2544 C.ar    1  UNL1        0.1547
      2 C         144.2318  139.3826  161.7577 C.ar    1  UNL1        0.0400
      3 C         143.1644  138.6426  161.0071 C.ar    1  UNL1        0.0241
      4 C         142.0419  137.9847  161.7533 C.ar    1  UNL1        0.0033
      5 C         141.9866  138.0666  163.2500 C.ar    1  UNL1        0.0207
      6 C         143.0539  138.8065  164.0005 C.ar    1  UNL1        0.0994
      7 N         142.9986  138.8884  165.4973 N.ar    1  UNL1       -0.2839
      8 C         143.8077  138.0659  166.4559 C.ar    1  UNL1        0.1826
      9 N         143.4336  138.4764  167.8492 N.ar    1  UNL1       -0.2280
     10 C         142.3933  139.5526  167.7519 C.ar    1  UNL1        0.0786
     11 C         141.7370  140.2515  168.9055 C.3     1  UNL1        0.0538
     12 C         142.1244  139.8073  166.2983 C.ar    1  UNL1        0.0963
     13 C         143.2198  138.5607  159.5103 C.ar    1  UNL1        0.1233
     14 C         142.6054  137.4864  158.6628 C.ar    1  UNL1        0.1179
     15 N         142.9051  137.8005  157.2270 N.ar    1  UNL1       -0.2257
     16 N         143.7047  139.0690  157.1871 N.ar    1  UNL1       -0.0635
     17 N         143.8991  139.5388  158.5983 N.ar    1  UNL1       -0.1287
     18 C         142.4799  136.9886  156.0395 C.3     1  UNL1        0.1556
     19 C         142.5157  135.4904  156.1036 C.ar    1  UNL1        0.0044
     20 C         141.4573  134.6846  155.4103 C.ar    1  UNL1       -0.0022
     21 C         141.4931  133.1864  155.4743 C.ar    1  UNL1        0.0020
     22 C         142.5873  132.4940  156.2316 C.ar    1  UNL1        0.0296
     23 C         143.6456  133.2998  156.9248 C.ar    1  UNL1        0.1399
     24 F         144.7398  132.6074  157.6820 F       1  UNL1       -0.2042
     25 C         143.6098  134.7980  156.8608 C.ar    1  UNL1        0.0273
     26 C         145.6931  141.5555  163.5331 C.3     1  UNL1        0.2525
     27 O         145.2438  140.2044  164.0049 O.3     1  UNL1       -0.4700
@<TRIPOS>BOND
     1    26    27    1
     2    27     1    1
     3     1     2   ar
     4     2     3   ar
     5     3    13    1
     6    13    14   ar
     7    14    15   ar
     8    15    18    1
     9    18    19    1
    10    19    20   ar
    11    20    21   ar
    12    21    22   ar
    13    22    23   ar
    14    23    24    1
    15    23    25   ar
    16    15    16   ar
    17    16    17   ar
    18     3     4   ar
    19     4     5   ar
    20     5     6   ar
    21     6     7    1
    22     7     8   ar
    23     8     9   ar
    24     9    10   ar
    25    10    11    1
    26    10    12   ar
    27     6     1   ar
    28    12     7   ar
    29    17    13   ar
    30    25    19   ar
@<TRIPOS>MOLECULE
*****
 27 30 0 0 0
SMALL
GASTEIGER

@<TRIPOS>ATOM
      1 C         141.9915  137.9582  163.2427 C.ar    1  UNL1        0.1547
      2 C         142.0427  137.8672  161.7464 C.ar    1  UNL1        0.0400
      3 C         143.1046  138.6048  160.9859 C.ar    1  UNL1        0.0241
      4 C         144.1153  139.4335  161.7219 C.ar    1  UNL1        0.0033
      5 C         144.0641  139.5246  163.2182 C.ar    1  UNL1        0.0207
      6 C         143.0023  138.7869  163.9786 C.ar    1  UNL1        0.0994
      7 N         142.9511  138.8779  165.4750 N.ar    1  UNL1       -0.2839
      8 C         143.7798  138.0779  166.4358 C.ar    1  UNL1        0.1826
      9 N         143.4032  138.4905  167.8279 N.ar    1  UNL1       -0.2280
     10 C         142.3417  139.5457  167.7274 C.ar    1  UNL1        0.0786
     11 C         141.6764  140.2395  168.8789 C.3     1  UNL1        0.0538
     12 C         142.0623  139.7850  166.2733 C.ar    1  UNL1        0.0963
     13 C         143.1557  138.5138  159.4895 C.ar    1  UNL1        0.1233
     14 C         142.4616  137.4871  158.6445 C.ar    1  UNL1        0.1179
     15 N         142.7869  137.7723  157.2082 N.ar    1  UNL1       -0.2257
     16 N         143.6820  138.9752  157.1656 N.ar    1  UNL1       -0.0635
     17 N         143.9100  139.4334  158.5755 N.ar    1  UNL1       -0.1287
     18 C         142.3021  136.9916  156.0226 C.3     1  UNL1        0.1556
     19 C         142.5095  135.5070  155.9664 C.ar    1  UNL1        0.0044
     20 C         143.7825  134.9074  156.4863 C.ar    1  UNL1       -0.0022
     21 C         143.9899  133.4229  156.4301 C.ar    1  UNL1        0.0020
     22 C         142.9245  132.5380  155.8540 C.ar    1  UNL1        0.0296
     23 C         141.6516  133.1376  155.3342 C.ar    1  UNL1        0.1399
     24 F         140.5862  132.2527  154.7582 F       1  UNL1       -0.2042
     25 C         141.4442  134.6221  155.3904 C.ar    1  UNL1        0.0273
     26 C         139.5189  137.7301  164.0069 C.3     1  UNL1        0.2525
     27 O         140.9296  137.2205  164.0031 O.3     1  UNL1       -0.4700
@<TRIPOS>BOND
     1    26    27    1
     2    27     1    1
     3     1     2   ar
     4     2     3   ar
     5     3    13    1
     6    13    14   ar
     7    14    15   ar
     8    15    18    1
     9    18    19    1
    10    19    20   ar
    11    20    21   ar
    12    21    22   ar
    13    22    23   ar
    14    23    24    1
    15    23    25   ar
    16    15    16   ar
    17    16    17   ar
    18     3     4   ar
    19     4     5   ar
    20     5     6   ar
    21     6     7    1
    22     7     8   ar
    23     8     9   ar
    24     9    10   ar
    25    10    11    1
    26    10    12   ar
    27     6     1   ar
    28    12     7   ar
    29    17    13   ar
    30    25    19   ar
@<TRIPOS>MOLECULE
*****
 27 30 0 0 0
SMALL
GASTEIGER

@<TRIPOS>ATOM
      1 C         140.5350  140.0292  162.1395 C.ar    1  UNL1        0.1547
      2 C         139.9376  140.1261  163.5119 C.ar    1  UNL1        0.0400
      3 C         139.8893  138.9155  164.3962 C.ar    1  UNL1        0.0241
      4 C         140.4384  137.6078  163.9080 C.ar    1  UNL1        0.0033
      5 C         141.0358  137.5108  162.5355 C.ar    1  UNL1        0.0207
      6 C         141.0841  138.7215  161.6513 C.ar    1  UNL1        0.0994
      7 N         141.6816  138.6244  160.2788 N.ar    1  UNL1       -0.2839
      8 C         143.1441  138.6709  159.9485 C.ar    1  UNL1        0.1826
      9 N         143.2878  138.5391  158.4613 N.ar    1  UNL1       -0.2280
     10 C         141.9141  138.4112  157.8723 C.ar    1  UNL1        0.0786
     11 C         141.5901  138.2575  156.4158 C.3     1  UNL1        0.0538
     12 C         140.9215  138.4639  158.9956 C.ar    1  UNL1        0.0963
     13 C         139.2918  139.0125  165.7687 C.ar    1  UNL1        0.1233
     14 C         139.8388  139.8119  166.9139 C.ar    1  UNL1        0.1179
     15 N         138.9275  139.6206  168.0899 N.ar    1  UNL1       -0.2257
     16 N         137.8171  138.7029  167.6714 N.ar    1  UNL1       -0.0635
     17 N         138.0423  138.3271  166.2368 N.ar    1  UNL1       -0.1287
     18 C         139.0967  140.2385  169.4462 C.3     1  UNL1        0.1556
     19 C         140.2113  141.2114  169.6934 C.ar    1  UNL1        0.0044
     20 C         139.9225  142.6820  169.7584 C.ar    1  UNL1       -0.0022
     21 C         141.0371  143.6550  170.0056 C.ar    1  UNL1        0.0020
     22 C         142.4404  143.1574  170.1877 C.ar    1  UNL1        0.0296
     23 C         142.7292  141.6869  170.1227 C.ar    1  UNL1        0.1399
     24 F         144.1325  141.1893  170.3048 F       1  UNL1       -0.2042
     25 C         141.6146  140.7140  169.8755 C.ar    1  UNL1        0.0273
     26 C         141.7408  142.1895  161.3465 C.3     1  UNL1        0.2525
     27 O         140.5833  141.2399  161.2552 O.3     1  UNL1       -0.4700
@<TRIPOS>BOND
     1    26    27    1
     2    27     1    1
     3     1     2   ar
     4     2     3   ar
     5     3    13    1
     6    13    14   ar
     7    14    15   ar
     8    15    18    1
     9    18    19    1
    10    19    20   ar
    11    20    21   ar
    12    21    22   ar
    13    22    23   ar
    14    23    24    1
    15    23    25   ar
    16    15    16   ar
    17    16    17   ar
    18     3     4   ar
    19     4     5   ar
    20     5     6   ar
    21     6     7    1
    22     7     8   ar
    23     8     9   ar
    24     9    10   ar
    25    10    11    1
    26    10    12   ar
    27     6     1   ar
    28    12     7   ar
    29    17    13   ar
    30    25    19   ar
@<TRIPOS>MOLECULE
*****
 27 30 0 0 0
SMALL
GASTEIGER

@<TRIPOS>ATOM
      1 C         139.0428  139.7693  158.8959 C.ar    1  UNL1        0.1547
      2 C         139.8661  138.9609  157.9376 C.ar    1  UNL1        0.0400
      3 C         141.2571  138.5424  158.3116 C.ar    1  UNL1        0.0241
      4 C         141.8249  138.9325  159.6441 C.ar    1  UNL1        0.0033
      5 C         141.0016  139.7410  160.6024 C.ar    1  UNL1        0.0207
      6 C         139.6105  140.1594  160.2284 C.ar    1  UNL1        0.0994
      7 N         138.7872  140.9680  161.1868 N.ar    1  UNL1       -0.2839
      8 C         137.6586  140.4542  162.0306 C.ar    1  UNL1        0.1826
      9 N         137.1219  141.6009  162.8350 N.ar    1  UNL1       -0.2280
     10 C         137.9189  142.8235  162.4883 C.ar    1  UNL1        0.0786
     11 C         137.7214  144.1961  163.0598 C.3     1  UNL1        0.0538
     12 C         138.9482  142.4323  161.4697 C.ar    1  UNL1        0.0963
     13 C         142.0804  137.7339  157.3532 C.ar    1  UNL1        0.1233
     14 C         141.6383  136.4879  156.6447 C.ar    1  UNL1        0.1179
     15 N         142.7750  136.0134  155.7887 N.ar    1  UNL1       -0.2257
     16 N         143.9196  136.9662  155.9681 N.ar    1  UNL1       -0.0635
     17 N         143.4903  138.0295  156.9350 N.ar    1  UNL1       -0.1287
     18 C         142.7683  134.7993  154.9078 C.3     1  UNL1        0.1556
     19 C         143.4229  133.5321  155.3722 C.ar    1  UNL1        0.0044
     20 C         143.3069  132.2829  154.5497 C.ar    1  UNL1       -0.0022
     21 C         143.9615  131.0157  155.0141 C.ar    1  UNL1        0.0020
     22 C         144.7320  130.9976  156.3010 C.ar    1  UNL1        0.0296
     23 C         144.8480  132.2466  157.1234 C.ar    1  UNL1        0.1399
     24 F         145.6186  132.2285  158.4102 F       1  UNL1       -0.2042
     25 C         144.1934  133.5138  156.6590 C.ar    1  UNL1        0.0273
     26 C         137.4187  140.9849  157.2728 C.3     1  UNL1        0.2525
     27 O         137.6517  140.1878  158.5218 O.3     1  UNL1       -0.4700
@<TRIPOS>BOND
     1    26    27    1
     2    27     1    1
     3     1     2   ar
     4     2     3   ar
     5     3    13    1
     6    13    14   ar
     7    14    15   ar
     8    15    18    1
     9    18    19    1
    10    19    20   ar
    11    20    21   ar
    12    21    22   ar
    13    22    23   ar
    14    23    24    1
    15    23    25   ar
    16    15    16   ar
    17    16    17   ar
    18     3     4   ar
    19     4     5   ar
    20     5     6   ar
    21     6     7    1
    22     7     8   ar
    23     8     9   ar
    24     9    10   ar
    25    10    11    1
    26    10    12   ar
    27     6     1   ar
    28    12     7   ar
    29    17    13   ar
    30    25    19   ar
@<TRIPOS>MOLECULE
*****
 27 30 0 0 0
SMALL
GASTEIGER

@<TRIPOS>ATOM
      1 C         142.8874  142.3081  164.9589 C.ar    1  UNL1        0.1547
      2 C         142.5102  142.9942  163.6795 C.ar    1  UNL1        0.0400
      3 C         141.2218  143.7569  163.5890 C.ar    1  UNL1        0.0241
      4 C         140.3105  143.8336  164.7779 C.ar    1  UNL1        0.0033
      5 C         140.6876  143.1475  166.0573 C.ar    1  UNL1        0.0207
      6 C         141.9761  142.3848  166.1479 C.ar    1  UNL1        0.0994
      7 N         142.3532  141.6987  167.4274 N.ar    1  UNL1       -0.2839
      8 C         143.0786  142.3234  168.5822 C.ar    1  UNL1        0.1826
      9 N         143.2449  141.2783  169.6452 N.ar    1  UNL1       -0.2280
     10 C         142.6221  140.0076  169.1474 C.ar    1  UNL1        0.0786
     11 C         142.5612  138.7057  169.8900 C.3     1  UNL1        0.0538
     12 C         142.0711  140.2675  167.7768 C.ar    1  UNL1        0.0963
     13 C         140.8447  144.4430  162.3094 C.ar    1  UNL1        0.1233
     14 C         141.6084  144.3853  161.0197 C.ar    1  UNL1        0.1179
     15 N         140.8733  145.2138  160.0082 N.ar    1  UNL1       -0.2257
     16 N         139.6552  145.7836  160.6728 N.ar    1  UNL1       -0.0635
     17 N         139.6375  145.3072  162.0950 N.ar    1  UNL1       -0.1287
     18 C         141.2842  145.4339  158.5825 C.3     1  UNL1        0.1556
     19 C         140.2577  145.3842  157.4899 C.ar    1  UNL1        0.0044
     20 C         139.6242  144.0772  157.1149 C.ar    1  UNL1       -0.0022
     21 C         138.5976  144.0275  156.0223 C.ar    1  UNL1        0.0020
     22 C         138.2045  145.2847  155.3047 C.ar    1  UNL1        0.0296
     23 C         138.8380  146.5917  155.6798 C.ar    1  UNL1        0.1399
     24 F         138.4449  147.8489  154.9622 F       1  UNL1       -0.2042
     25 C         139.8645  146.6413  156.7723 C.ar    1  UNL1        0.0273
     26 C         145.3079  141.8727  164.1215 C.3     1  UNL1        0.2525
     27 O         144.1758  141.5454  165.0494 O.3     1  UNL1       -0.4700
@<TRIPOS>BOND
     1    26    27    1
     2    27     1    1
     3     1     2   ar
     4     2     3   ar
     5     3    13    1
     6    13    14   ar
     7    14    15   ar
     8    15    18    1
     9    18    19    1
    10    19    20   ar
    11    20    21   ar
    12    21    22   ar
    13    22    23   ar
    14    23    24    1
    15    23    25   ar
    16    15    16   ar
    17    16    17   ar
    18     3     4   ar
    19     4     5   ar
    20     5     6   ar
    21     6     7    1
    22     7     8   ar
    23     8     9   ar
    24     9    10   ar
    25    10    11    1
    26    10    12   ar
    27     6     1   ar
    28    12     7   ar
    29    17    13   ar
    30    25    19   ar
@<TRIPOS>MOLECULE
*****
 27 30 0 0 0
SMALL
GASTEIGER

@<TRIPOS>ATOM
      1 C         140.0946  139.5983  161.0768 C.ar    1  UNL1        0.1547
      2 C         140.7643  139.2859  159.7715 C.ar    1  UNL1        0.0400
      3 C         141.9896  138.4211  159.7453 C.ar    1  UNL1        0.0241
      4 C         142.5452  137.8686  161.0244 C.ar    1  UNL1        0.0033
      5 C         141.8755  138.1811  162.3297 C.ar    1  UNL1        0.0207
      6 C         140.6502  139.0459  162.3559 C.ar    1  UNL1        0.0994
      7 N         139.9804  139.3583  163.6612 N.ar    1  UNL1       -0.2839
      8 C         140.0507  140.6628  164.3983 C.ar    1  UNL1        0.1826
      9 N         139.2365  140.5318  165.6512 N.ar    1  UNL1       -0.2280
     10 C         138.6631  139.1462  165.6886 C.ar    1  UNL1        0.0786
     11 C         137.7842  138.5845  166.7666 C.3     1  UNL1        0.0538
     12 C         139.1229  138.4210  164.4587 C.ar    1  UNL1        0.0963
     13 C         142.6594  138.1086  158.4399 C.ar    1  UNL1        0.1233
     14 C         142.5990  136.8002  157.7089 C.ar    1  UNL1        0.1179
     15 N         143.4094  136.9328  156.4537 N.ar    1  UNL1       -0.2257
     16 N         143.9706  138.3232  156.4088 N.ar    1  UNL1       -0.0635
     17 N         143.5071  139.0499  157.6364 N.ar    1  UNL1       -0.1287
     18 C         143.6214  135.8628  155.4239 C.3     1  UNL1        0.1556
     19 C         143.2781  134.4376  155.7416 C.ar    1  UNL1        0.0044
     20 C         142.1110  133.7791  155.0674 C.ar    1  UNL1       -0.0022
     21 C         141.7678  132.3539  155.3851 C.ar    1  UNL1        0.0020
     22 C         142.5915  131.5872  156.3769 C.ar    1  UNL1        0.0296
     23 C         143.7584  132.2457  157.0510 C.ar    1  UNL1        0.1399
     24 F         144.5822  131.4790  158.0429 F       1  UNL1       -0.2042
     25 C         144.1017  133.6709  156.7334 C.ar    1  UNL1        0.0273
     26 C         137.5106  139.8433  160.9625 C.3     1  UNL1        0.2525
     27 O         138.8693  140.4631  161.1030 O.3     1  UNL1       -0.4700
@<TRIPOS>BOND
     1    26    27    1
     2    27     1    1
     3     1     2   ar
     4     2     3   ar
     5     3    13    1
     6    13    14   ar
     7    14    15   ar
     8    15    18    1
     9    18    19    1
    10    19    20   ar
    11    20    21   ar
    12    21    22   ar
    13    22    23   ar
    14    23    24    1
    15    23    25   ar
    16    15    16   ar
    17    16    17   ar
    18     3     4   ar
    19     4     5   ar
    20     5     6   ar
    21     6     7    1
    22     7     8   ar
    23     8     9   ar
    24     9    10   ar
    25    10    11    1
    26    10    12   ar
    27     6     1   ar
    28    12     7   ar
    29    17    13   ar
    30    25    19   ar
@<TRIPOS>MOLECULE
*****
 27 30 0 0 0
SMALL
GASTEIGER

@<TRIPOS>ATOM
      1 C         142.2785  142.8600  165.1888 C.ar    1  UNL1        0.1547
      2 C         142.0272  143.5289  163.8699 C.ar    1  UNL1        0.0400
      3 C         140.6665  144.0748  163.5531 C.ar    1  UNL1        0.0241
      4 C         139.5571  143.9519  164.5551 C.ar    1  UNL1        0.0033
      5 C         139.8084  143.2831  165.8739 C.ar    1  UNL1        0.0207
      6 C         141.1691  142.7371  166.1907 C.ar    1  UNL1        0.0994
      7 N         141.4203  142.0682  167.5097 N.ar    1  UNL1       -0.2839
      8 C         141.3144  142.7132  168.8598 C.ar    1  UNL1        0.1826
      9 N         141.6503  141.6805  169.8945 N.ar    1  UNL1       -0.2280
     10 C         141.9637  140.3972  169.1839 C.ar    1  UNL1        0.0786
     11 C         142.3512  139.1017  169.8332 C.3     1  UNL1        0.0538
     12 C         141.8216  140.6368  167.7100 C.ar    1  UNL1        0.0963
     13 C         140.4152  144.7437  162.2341 C.ar    1  UNL1        0.1233
     14 C         141.2089  144.5414  160.9775 C.ar    1  UNL1        0.1179
     15 N         140.6104  145.4050  159.9071 N.ar    1  UNL1       -0.2257
     16 N         139.4467  146.1412  160.5021 N.ar    1  UNL1       -0.0635
     17 N         139.3261  145.7325  161.9403 N.ar    1  UNL1       -0.1287
     18 C         141.0910  145.5134  158.4903 C.3     1  UNL1        0.1556
     19 C         140.1038  145.5097  157.3610 C.ar    1  UNL1        0.0044
     20 C         139.7494  146.7935  156.6705 C.ar    1  UNL1       -0.0022
     21 C         138.7621  146.7898  155.5412 C.ar    1  UNL1        0.0020
     22 C         138.1294  145.5025  155.1023 C.ar    1  UNL1        0.0296
     23 C         138.4838  144.2189  155.7928 C.ar    1  UNL1        0.1399
     24 F         137.8510  142.9317  155.3539 F       1  UNL1       -0.2042
     25 C         139.4710  144.2226  156.9221 C.ar    1  UNL1        0.0273
     26 C         144.8121  142.6764  164.6437 C.3     1  UNL1        0.2525
     27 O         143.6392  142.3140  165.5056 O.3     1  UNL1       -0.4700
@<TRIPOS>BOND
     1    26    27    1
     2    27     1    1
     3     1     2   ar
     4     2     3   ar
     5     3    13    1
     6    13    14   ar
     7    14    15   ar
     8    15    18    1
     9    18    19    1
    10    19    20   ar
    11    20    21   ar
    12    21    22   ar
    13    22    23   ar
    14    23    24    1
    15    23    25   ar
    16    15    16   ar
    17    16    17   ar
    18     3     4   ar
    19     4     5   ar
    20     5     6   ar
    21     6     7    1
    22     7     8   ar
    23     8     9   ar
    24     9    10   ar
    25    10    11    1
    26    10    12   ar
    27     6     1   ar
    28    12     7   ar
    29    17    13   ar
    30    25    19   ar
@<TRIPOS>MOLECULE
*****
 27 30 0 0 0
SMALL
GASTEIGER

@<TRIPOS>ATOM
      1 C         141.4918  138.7095  162.0590 C.ar    1  UNL1        0.1547
      2 C         142.2062  138.4168  160.7730 C.ar    1  UNL1        0.0400
      3 C         141.4464  138.4005  159.4798 C.ar    1  UNL1        0.0241
      4 C         139.9721  138.6770  159.4726 C.ar    1  UNL1        0.0033
      5 C         139.2577  138.9697  160.7586 C.ar    1  UNL1        0.0207
      6 C         140.0176  138.9859  162.0518 C.ar    1  UNL1        0.0994
      7 N         139.3031  139.2786  163.3379 N.ar    1  UNL1       -0.2839
      8 C         138.7563  140.6103  163.7594 C.ar    1  UNL1        0.1826
      9 N         138.1253  140.4457  165.1102 N.ar    1  UNL1       -0.2280
     10 C         138.2821  139.0123  165.5236 C.ar    1  UNL1        0.0786
     11 C         137.7962  138.4066  166.8070 C.3     1  UNL1        0.0538
     12 C         139.0100  138.2910  164.4282 C.ar    1  UNL1        0.0963
     13 C         142.1608  138.1078  158.1937 C.ar    1  UNL1        0.1233
     14 C         141.7001  137.1618  157.1247 C.ar    1  UNL1        0.1179
     15 N         142.7160  137.1790  156.0212 N.ar    1  UNL1       -0.2257
     16 N         143.8046  138.1358  156.4082 N.ar    1  UNL1       -0.0635
     17 N         143.4615  138.7097  157.7509 N.ar    1  UNL1       -0.1287
     18 C         142.6542  136.3799  154.7533 C.3     1  UNL1        0.1556
     19 C         142.9127  134.9027  154.7844 C.ar    1  UNL1        0.0044
     20 C         142.2638  134.0062  153.7717 C.ar    1  UNL1       -0.0022
     21 C         142.5223  132.5290  153.8028 C.ar    1  UNL1        0.0020
     22 C         143.4296  131.9482  154.8466 C.ar    1  UNL1        0.0296
     23 C         144.0784  132.8446  155.8593 C.ar    1  UNL1        0.1399
     24 F         144.9857  132.2638  156.9031 F       1  UNL1       -0.2042
     25 C         143.8199  134.3218  155.8281 C.ar    1  UNL1        0.0273
     26 C         143.7349  138.9490  163.3478 C.3     1  UNL1        0.2525
     27 O         142.2517  138.7257  163.3522 O.3     1  UNL1       -0.4700
@<TRIPOS>BOND
     1    26    27    1
     2    27     1    1
     3     1     2   ar
     4     2     3   ar
     5     3    13    1
     6    13    14   ar
     7    14    15   ar
     8    15    18    1
     9    18    19    1
    10    19    20   ar
    11    20    21   ar
    12    21    22   ar
    13    22    23   ar
    14    23    24    1
    15    23    25   ar
    16    15    16   ar
    17    16    17   ar
    18     3     4   ar
    19     4     5   ar
    20     5     6   ar
    21     6     7    1
    22     7     8   ar
    23     8     9   ar
    24     9    10   ar
    25    10    11    1
    26    10    12   ar
    27     6     1   ar
    28    12     7   ar
    29    17    13   ar
    30    25    19   ar
@<TRIPOS>MOLECULE
*****
 27 30 0 0 0
SMALL
GASTEIGER

@<TRIPOS>ATOM
      1 C         142.5456  143.4720  159.8646 C.ar    1  UNL1        0.1547
      2 C         142.9212  142.9722  161.2281 C.ar    1  UNL1        0.0400
      3 C         142.2846  143.5699  162.4477 C.ar    1  UNL1        0.0241
      4 C         141.2723  144.6674  162.3038 C.ar    1  UNL1        0.0033
      5 C         140.8967  145.1672  160.9404 C.ar    1  UNL1        0.0207
      6 C         141.5334  144.5695  159.7208 C.ar    1  UNL1        0.0994
      7 N         141.1577  145.0694  158.3573 N.ar    1  UNL1       -0.2839
      8 C         141.9954  145.9519  157.4800 C.ar    1  UNL1        0.1826
      9 N         141.2338  146.2025  156.2123 N.ar    1  UNL1       -0.2280
     10 C         139.9254  145.4748  156.3060 C.ar    1  UNL1        0.0786
     11 C         138.8525  145.4515  155.2580 C.3     1  UNL1        0.0538
     12 C         139.8784  144.7746  157.6316 C.ar    1  UNL1        0.0963
     13 C         142.6602  143.0700  163.8112 C.ar    1  UNL1        0.1233
     14 C         141.9331  142.0188  164.5961 C.ar    1  UNL1        0.1179
     15 N         142.6524  141.8327  165.8991 N.ar    1  UNL1       -0.2257
     16 N         143.8243  142.7689  165.9195 N.ar    1  UNL1       -0.0635
     17 N         143.8291  143.5336  164.6291 N.ar    1  UNL1       -0.1287
     18 C         142.2676  140.8780  166.9902 C.3     1  UNL1        0.1556
     19 C         141.3833  141.3374  168.1114 C.ar    1  UNL1        0.0044
     20 C         140.5104  140.3516  168.8302 C.ar    1  UNL1       -0.0022
     21 C         139.6261  140.8110  169.9513 C.ar    1  UNL1        0.0020
     22 C         139.6147  142.2560  170.3537 C.ar    1  UNL1        0.0296
     23 C         140.4875  143.2416  169.6349 C.ar    1  UNL1        0.1399
     24 F         140.4760  144.6866  170.0373 F       1  UNL1       -0.2042
     25 C         141.3718  142.7822  168.5138 C.ar    1  UNL1        0.0273
     26 C         144.6307  142.4852  158.6694 C.3     1  UNL1        0.2525
     27 O         143.1823  142.8743  158.6450 O.3     1  UNL1       -0.4700
@<TRIPOS>BOND
     1    26    27    1
     2    27     1    1
     3     1     2   ar
     4     2     3   ar
     5     3    13    1
     6    13    14   ar
     7    14    15   ar
     8    15    18    1
     9    18    19    1
    10    19    20   ar
    11    20    21   ar
    12    21    22   ar
    13    22    23   ar
    14    23    24    1
    15    23    25   ar
    16    15    16   ar
    17    16    17   ar
    18     3     4   ar
    19     4     5   ar
    20     5     6   ar
    21     6     7    1
    22     7     8   ar
    23     8     9   ar
    24     9    10   ar
    25    10    11    1
    26    10    12   ar
    27     6     1   ar
    28    12     7   ar
    29    17    13   ar
    30    25    19   ar
