@<TRIPOS>MOLECULE
*****
 33 36 0 0 0
SMALL
GASTEIGER

@<TRIPOS>ATOM
      1 C         140.9239  139.7571  166.0687 C.ar    1  UNL1        0.2019
      2 N         141.3961  140.5744  167.2345 N.ar    1  UNL1       -0.1961
      3 C         140.5471  140.6844  168.4662 C.ar    1  UNL1        0.1682
      4 C         139.2259  139.9771  168.5321 C.ar    1  UNL1        0.1125
      5 C         138.6107  140.2677  169.8689 C.ar    1  UNL1        0.1280
      6 N         139.5517  141.1546  170.6292 N.ar    1  UNL1       -0.1663
      7 N         140.7484  141.4121  169.7623 N.ar    1  UNL1       -0.2376
      8 C         138.7538  139.1599  167.3663 C.ar    1  UNL1        0.2676
      9 O         137.4326  138.4526  167.4322 O.2     1  UNL1       -0.2667
     10 N         139.6028  139.0499  166.1346 N.ar    1  UNL1       -0.2645
     11 C         141.9377  142.2502  170.1274 C.3     1  UNL1        0.0882
     12 C         142.7209  141.0072  170.4296 C.3     1  UNL1        0.0245
     13 C         141.1544  143.4933  169.8253 C.3     1  UNL1        0.0245
     14 C         143.1269  143.0883  170.4925 C.3     1  UNL1        0.0245
     15 N         141.7730  139.6471  164.8370 N.pl3   1  UNL1       -0.3021
     16 H         141.8627  138.7815  164.3766 H       1  UNL1        0.1498
     17 C         143.9848  140.8956  164.2898 C.3     1  UNL1        0.0262
     18 C         142.4854  140.8560  164.3068 C.3     1  UNL1        0.0943
     19 C         141.6984  142.0253  163.7937 C.ar    1  UNL1       -0.0045
     20 C         141.4066  143.1872  164.6965 C.ar    1  UNL1       -0.0018
     21 C         140.6195  144.3565  164.1832 C.ar    1  UNL1        0.0111
     22 C         140.1244  144.3639  162.7674 C.ar    1  UNL1        0.0577
     23 CL        139.3373  145.5332  162.2542 Cl      1  UNL1       -0.0822
     24 C         140.4161  143.2021  161.8647 C.ar    1  UNL1        0.0111
     25 C         141.2031  142.0328  162.3778 C.ar    1  UNL1       -0.0018
     26 C         139.1307  138.2325  164.9687 C.3     1  UNL1        0.1384
     27 C         138.7642  138.9064  163.6797 C.ar    1  UNL1        0.0007
     28 C         139.1103  138.2606  162.3709 C.ar    1  UNL1       -0.0001
     29 C         138.7439  138.9345  161.0819 C.ar    1  UNL1        0.0294
     30 C         138.0313  140.2543  161.1017 C.ar    1  UNL1        0.1401
     31 F         137.6648  140.9283  159.8127 F       1  UNL1       -0.2042
     32 C         137.6852  140.9001  162.4105 C.ar    1  UNL1        0.0294
     33 C         138.0516  140.2262  163.6995 C.ar    1  UNL1       -0.0001
@<TRIPOS>BOND
     1    18    17    1
     2    18    15    1
     3    15     1    1
     4     1     2   ar
     5     2     3   ar
     6     3     4   ar
     7     4     5   ar
     8     5     6   ar
     9     6     7   ar
    10     7    11    1
    11    11    12    1
    12    11    13    1
    13    11    14    1
    14     4     8   ar
    15     8     9    2
    16     8    10   ar
    17    10    26    1
    18    26    27    1
    19    27    28   ar
    20    28    29   ar
    21    29    30   ar
    22    30    31    1
    23    30    32   ar
    24    32    33   ar
    25    18    19    1
    26    19    20   ar
    27    20    21   ar
    28    21    22   ar
    29    22    23    1
    30    22    24   ar
    31    24    25   ar
    32    10     1   ar
    33    33    27   ar
    34    25    19   ar
    35     7     3   ar
    36    15    16    1
@<TRIPOS>MOLECULE
*****
 33 36 0 0 0
SMALL
GASTEIGER

@<TRIPOS>ATOM
      1 C         141.8502  140.4738  165.0536 C.ar    1  UNL1        0.2019
      2 N         141.6643  140.6714  166.5289 N.ar    1  UNL1       -0.1961
      3 C         140.4260  140.1605  167.2038 C.ar    1  UNL1        0.1682
      4 C         139.3736  139.4521  166.4036 C.ar    1  UNL1        0.1125
      5 C         138.2663  139.0611  167.3369 C.ar    1  UNL1        0.1280
      6 N         138.6345  139.5280  168.7141 N.ar    1  UNL1       -0.1663
      7 N         139.9692  140.2074  168.6318 N.ar    1  UNL1       -0.2376
      8 C         139.5594  139.2545  164.9283 C.ar    1  UNL1        0.2676
      9 O         138.5070  138.5460  164.1280 O.2     1  UNL1       -0.2667
     10 N         140.7978  139.7654  164.2534 N.ar    1  UNL1       -0.2645
     11 C         140.7160  140.8253  169.7766 C.3     1  UNL1        0.0882
     12 C         141.4568  139.5383  169.9880 C.3     1  UNL1        0.0245
     13 C         139.9752  142.1124  169.5652 C.3     1  UNL1        0.0245
     14 C         141.4628  141.4432  170.9214 C.3     1  UNL1        0.0245
     15 N         143.0886  140.9847  164.3787 N.pl3   1  UNL1       -0.3021
     16 H         143.7031  140.3557  163.9359 H       1  UNL1        0.1498
     17 C         144.6436  142.9624  165.0277 C.3     1  UNL1        0.0262
     18 C         143.3906  142.4540  164.3783 C.3     1  UNL1        0.0943
     19 C         142.4396  143.4150  163.7286 C.ar    1  UNL1       -0.0045
     20 C         141.2039  143.8550  164.4564 C.ar    1  UNL1       -0.0018
     21 C         140.2530  144.8159  163.8065 C.ar    1  UNL1        0.0111
     22 C         140.5377  145.3369  162.4291 C.ar    1  UNL1        0.0577
     23 CL        139.5867  146.2979  161.7792 Cl      1  UNL1       -0.0822
     24 C         141.7733  144.8970  161.7013 C.ar    1  UNL1        0.0111
     25 C         142.7243  143.9360  162.3511 C.ar    1  UNL1       -0.0018
     26 C         140.9837  139.5678  162.7780 C.3     1  UNL1        0.1384
     27 C         140.5360  140.6288  161.8169 C.ar    1  UNL1        0.0007
     28 C         139.2786  141.4015  162.0852 C.ar    1  UNL1       -0.0001
     29 C         138.8309  142.4626  161.1241 C.ar    1  UNL1        0.0294
     30 C         139.6406  142.7510  159.8947 C.ar    1  UNL1        0.1401
     31 F         139.1929  143.8120  158.9336 F       1  UNL1       -0.2042
     32 C         140.8979  141.9783  159.6265 C.ar    1  UNL1        0.0294
     33 C         141.3457  140.9172  160.5876 C.ar    1  UNL1       -0.0001
@<TRIPOS>BOND
     1    18    17    1
     2    18    15    1
     3    15     1    1
     4     1     2   ar
     5     2     3   ar
     6     3     4   ar
     7     4     5   ar
     8     5     6   ar
     9     6     7   ar
    10     7    11    1
    11    11    12    1
    12    11    13    1
    13    11    14    1
    14     4     8   ar
    15     8     9    2
    16     8    10   ar
    17    10    26    1
    18    26    27    1
    19    27    28   ar
    20    28    29   ar
    21    29    30   ar
    22    30    31    1
    23    30    32   ar
    24    32    33   ar
    25    18    19    1
    26    19    20   ar
    27    20    21   ar
    28    21    22   ar
    29    22    23    1
    30    22    24   ar
    31    24    25   ar
    32    10     1   ar
    33    33    27   ar
    34    25    19   ar
    35     7     3   ar
    36    15    16    1
@<TRIPOS>MOLECULE
*****
 33 36 0 0 0
SMALL
GASTEIGER

@<TRIPOS>ATOM
      1 C         143.2811  140.5787  163.6798 C.ar    1  UNL1        0.2019
      2 N         143.2468  141.1903  162.3106 N.ar    1  UNL1       -0.1961
      3 C         142.5355  140.4872  161.1928 C.ar    1  UNL1        0.1682
      4 C         141.8584  139.1725  161.4442 C.ar    1  UNL1        0.1125
      5 C         141.2397  138.7159  160.1562 C.ar    1  UNL1        0.1280
      6 N         141.5345  139.7484  159.1088 N.ar    1  UNL1       -0.1663
      7 N         142.3353  140.8431  159.7494 N.ar    1  UNL1       -0.2376
      8 C         141.8927  138.5610  162.8134 C.ar    1  UNL1        0.2676
      9 O         141.2156  137.2463  163.0649 O.2     1  UNL1       -0.2667
     10 N         142.6041  139.2642  163.9312 N.ar    1  UNL1       -0.2645
     11 C         142.8462  142.0771  159.0666 C.3     1  UNL1        0.0882
     12 C         141.6181  142.8234  159.4965 C.3     1  UNL1        0.0245
     13 C         144.0742  141.3308  158.6367 C.3     1  UNL1        0.0245
     14 C         143.3571  143.3111  158.3837 C.3     1  UNL1        0.0245
     15 N         143.9925  141.2820  164.7977 N.pl3   1  UNL1       -0.3021
     16 H         144.6674  140.8024  165.3305 H       1  UNL1        0.1498
     17 C         144.7810  143.6741  165.4351 C.3     1  UNL1        0.0262
     18 C         143.6756  142.7158  165.1037 C.3     1  UNL1        0.0943
     19 C         142.2533  143.1914  165.0784 C.ar    1  UNL1       -0.0045
     20 C         141.2877  142.7252  166.1275 C.ar    1  UNL1       -0.0018
     21 C         139.8654  143.2009  166.1020 C.ar    1  UNL1        0.0111
     22 C         139.4085  144.1426  165.0277 C.ar    1  UNL1        0.0577
     23 CL        137.9861  144.6183  165.0023 Cl      1  UNL1       -0.0822
     24 C         140.3740  144.6088  163.9786 C.ar    1  UNL1        0.0111
     25 C         141.7964  144.1332  164.0040 C.ar    1  UNL1       -0.0018
     26 C         142.6384  138.6526  165.3006 C.3     1  UNL1        0.1384
     27 C         141.6956  139.1368  166.3621 C.ar    1  UNL1        0.0007
     28 C         142.2245  139.5472  167.7044 C.ar    1  UNL1       -0.0001
     29 C         141.2817  140.0314  168.7659 C.ar    1  UNL1        0.0294
     30 C         139.8101  140.1053  168.4850 C.ar    1  UNL1        0.1401
     31 F         138.8673  140.5896  169.5465 F       1  UNL1       -0.2042
     32 C         139.2813  139.6950  167.1427 C.ar    1  UNL1        0.0294
     33 C         140.2240  139.2107  166.0812 C.ar    1  UNL1       -0.0001
@<TRIPOS>BOND
     1    18    17    1
     2    18    15    1
     3    15     1    1
     4     1     2   ar
     5     2     3   ar
     6     3     4   ar
     7     4     5   ar
     8     5     6   ar
     9     6     7   ar
    10     7    11    1
    11    11    12    1
    12    11    13    1
    13    11    14    1
    14     4     8   ar
    15     8     9    2
    16     8    10   ar
    17    10    26    1
    18    26    27    1
    19    27    28   ar
    20    28    29   ar
    21    29    30   ar
    22    30    31    1
    23    30    32   ar
    24    32    33   ar
    25    18    19    1
    26    19    20   ar
    27    20    21   ar
    28    21    22   ar
    29    22    23    1
    30    22    24   ar
    31    24    25   ar
    32    10     1   ar
    33    33    27   ar
    34    25    19   ar
    35     7     3   ar
    36    15    16    1
@<TRIPOS>MOLECULE
*****
 33 36 0 0 0
SMALL
GASTEIGER

@<TRIPOS>ATOM
      1 C         138.8279  141.5317  161.6122 C.ar    1  UNL1        0.2019
      2 N         139.5372  142.0666  160.4035 N.ar    1  UNL1       -0.1961
      3 C         139.9377  143.5111  160.3470 C.ar    1  UNL1        0.1682
      4 C         139.6289  144.4206  161.4992 C.ar    1  UNL1        0.1125
      5 C         140.1428  145.7885  161.1606 C.ar    1  UNL1        0.1280
      6 N         140.7692  145.7244  159.7991 N.ar    1  UNL1       -0.1663
      7 N         140.6425  144.3168  159.2964 N.ar    1  UNL1       -0.2376
      8 C         138.9196  143.8857  162.7078 C.ar    1  UNL1        0.2676
      9 O         138.6107  144.7952  163.8600 O.2     1  UNL1       -0.2667
     10 N         138.5191  142.4412  162.7642 N.ar    1  UNL1       -0.2645
     11 C         141.1342  143.8050  157.9749 C.3     1  UNL1        0.0882
     12 C         142.4530  143.4585  158.5999 C.3     1  UNL1        0.0245
     13 C         139.8154  144.1516  157.3499 C.3     1  UNL1        0.0245
     14 C         141.6259  143.2932  156.6535 C.3     1  UNL1        0.0245
     15 N         138.4274  140.0872  161.6686 N.pl3   1  UNL1       -0.3021
     16 H         137.4783  139.8428  161.7619 H       1  UNL1        0.1498
     17 C         139.5698  138.1582  160.3556 C.3     1  UNL1        0.0262
     18 C         139.4730  139.0152  161.5829 C.3     1  UNL1        0.0943
     19 C         140.4220  138.8002  162.7245 C.ar    1  UNL1       -0.0045
     20 C         140.3547  137.5351  163.5277 C.ar    1  UNL1       -0.0018
     21 C         141.3037  137.3202  164.6692 C.ar    1  UNL1        0.0111
     22 C         142.3199  138.3701  165.0076 C.ar    1  UNL1        0.0577
     23 CL        143.2690  138.1552  166.1492 Cl      1  UNL1       -0.0822
     24 C         142.3873  139.6352  164.2045 C.ar    1  UNL1        0.0111
     25 C         141.4383  139.8502  163.0629 C.ar    1  UNL1       -0.0018
     26 C         137.8097  141.9063  163.9729 C.3     1  UNL1        0.1384
     27 C         138.5969  141.3084  165.1011 C.ar    1  UNL1        0.0007
     28 C         139.7333  142.0742  165.7112 C.ar    1  UNL1       -0.0001
     29 C         140.5205  141.4762  166.8394 C.ar    1  UNL1        0.0294
     30 C         140.1714  140.1125  167.3574 C.ar    1  UNL1        0.1401
     31 F         140.9586  139.5145  168.4856 F       1  UNL1       -0.2042
     32 C         139.0351  139.3467  166.7473 C.ar    1  UNL1        0.0294
     33 C         138.2478  139.9446  165.6191 C.ar    1  UNL1       -0.0001
@<TRIPOS>BOND
     1    18    17    1
     2    18    15    1
     3    15     1    1
     4     1     2   ar
     5     2     3   ar
     6     3     4   ar
     7     4     5   ar
     8     5     6   ar
     9     6     7   ar
    10     7    11    1
    11    11    12    1
    12    11    13    1
    13    11    14    1
    14     4     8   ar
    15     8     9    2
    16     8    10   ar
    17    10    26    1
    18    26    27    1
    19    27    28   ar
    20    28    29   ar
    21    29    30   ar
    22    30    31    1
    23    30    32   ar
    24    32    33   ar
    25    18    19    1
    26    19    20   ar
    27    20    21   ar
    28    21    22   ar
    29    22    23    1
    30    22    24   ar
    31    24    25   ar
    32    10     1   ar
    33    33    27   ar
    34    25    19   ar
    35     7     3   ar
    36    15    16    1
@<TRIPOS>MOLECULE
*****
 33 36 0 0 0
SMALL
GASTEIGER

@<TRIPOS>ATOM
      1 C         141.0821  138.8028  164.2544 C.ar    1  UNL1        0.2019
      2 N         140.7376  139.0327  162.8127 N.ar    1  UNL1       -0.1961
      3 C         141.8219  139.3361  161.8216 C.ar    1  UNL1        0.1682
      4 C         143.2507  139.4096  162.2722 C.ar    1  UNL1        0.1125
      5 C         144.0985  139.7251  161.0757 C.ar    1  UNL1        0.1280
      6 N         143.1936  139.8466  159.8856 N.ar    1  UNL1       -0.1663
      7 N         141.7866  139.6062  160.3466 N.ar    1  UNL1       -0.2376
      8 C         143.5953  139.1797  163.7139 C.ar    1  UNL1        0.2676
      9 O         145.0241  139.2532  164.1646 O.2     1  UNL1       -0.2667
     10 N         142.5109  138.8763  164.7049 N.ar    1  UNL1       -0.2645
     11 C         140.5597  139.6314  159.4840 C.3     1  UNL1        0.0882
     12 C         140.1376  140.9216  160.1221 C.3     1  UNL1        0.0245
     13 C         140.9818  138.3412  158.8458 C.3     1  UNL1        0.0245
     14 C         139.3328  139.6567  158.6213 C.3     1  UNL1        0.0245
     15 N         139.9978  138.4994  165.2454 N.pl3   1  UNL1       -0.3021
     16 H         139.7529  137.5652  165.4366 H       1  UNL1        0.1498
     17 C         138.9657  139.5074  167.4062 C.3     1  UNL1        0.0262
     18 C         139.2865  139.6194  165.9452 C.3     1  UNL1        0.0943
     19 C         138.8962  140.8515  165.1840 C.ar    1  UNL1       -0.0045
     20 C         137.8607  140.7680  164.1018 C.ar    1  UNL1       -0.0018
     21 C         137.4705  142.0002  163.3406 C.ar    1  UNL1        0.0111
     22 C         138.1154  143.3157  163.6615 C.ar    1  UNL1        0.0577
     23 CL        137.7251  144.5480  162.9003 Cl      1  UNL1       -0.0822
     24 C         139.1508  143.3993  164.7436 C.ar    1  UNL1        0.0111
     25 C         139.5412  142.1672  165.5049 C.ar    1  UNL1       -0.0018
     26 C         142.8554  138.6464  166.1467 C.3     1  UNL1        0.1384
     27 C         142.8110  139.7872  167.1196 C.ar    1  UNL1        0.0007
     28 C         142.5986  139.5196  168.5801 C.ar    1  UNL1       -0.0001
     29 C         142.5542  140.6604  169.5530 C.ar    1  UNL1        0.0294
     30 C         142.7222  142.0689  169.0653 C.ar    1  UNL1        0.1401
     31 F         142.6779  143.2099  170.0381 F       1  UNL1       -0.2042
     32 C         142.9347  142.3366  167.6048 C.ar    1  UNL1        0.0294
     33 C         142.9791  141.1957  166.6319 C.ar    1  UNL1       -0.0001
@<TRIPOS>BOND
     1    18    17    1
     2    18    15    1
     3    15     1    1
     4     1     2   ar
     5     2     3   ar
     6     3     4   ar
     7     4     5   ar
     8     5     6   ar
     9     6     7   ar
    10     7    11    1
    11    11    12    1
    12    11    13    1
    13    11    14    1
    14     4     8   ar
    15     8     9    2
    16     8    10   ar
    17    10    26    1
    18    26    27    1
    19    27    28   ar
    20    28    29   ar
    21    29    30   ar
    22    30    31    1
    23    30    32   ar
    24    32    33   ar
    25    18    19    1
    26    19    20   ar
    27    20    21   ar
    28    21    22   ar
    29    22    23    1
    30    22    24   ar
    31    24    25   ar
    32    10     1   ar
    33    33    27   ar
    34    25    19   ar
    35     7     3   ar
    36    15    16    1
@<TRIPOS>MOLECULE
*****
 33 36 0 0 0
SMALL
GASTEIGER

@<TRIPOS>ATOM
      1 C         141.8243  143.5252  163.6815 C.ar    1  UNL1        0.2019
      2 N         141.3093  143.4850  162.2733 N.ar    1  UNL1       -0.1961
      3 C         142.1873  142.9782  161.1678 C.ar    1  UNL1        0.1682
      4 C         143.5804  142.5116  161.4705 C.ar    1  UNL1        0.1125
      5 C         144.2102  142.0670  160.1838 C.ar    1  UNL1        0.1280
      6 N         143.2063  142.2589  159.0858 N.ar    1  UNL1       -0.1663
      7 N         141.9561  142.8220  159.6940 N.ar    1  UNL1       -0.2376
      8 C         144.0954  142.5518  162.8787 C.ar    1  UNL1        0.2676
      9 O         145.4885  142.0852  163.1815 O.2     1  UNL1       -0.2667
     10 N         143.2173  143.0587  163.9842 N.ar    1  UNL1       -0.2645
     11 C         140.6960  143.1682  158.9576 C.3     1  UNL1        0.0882
     12 C         140.1836  141.7760  159.1800 C.3     1  UNL1        0.0245
     13 C         141.2084  144.5603  158.7352 C.3     1  UNL1        0.0245
     14 C         139.4359  143.5143  158.2212 C.3     1  UNL1        0.0245
     15 N         140.9462  144.0321  164.7871 N.pl3   1  UNL1       -0.3021
     16 H         141.2969  144.6867  165.4334 H       1  UNL1        0.1498
     17 C         138.3935  144.5135  164.8369 C.3     1  UNL1        0.0262
     18 C         139.5339  143.5415  164.9077 C.3     1  UNL1        0.0943
     19 C         139.2618  142.0789  165.0992 C.ar    1  UNL1       -0.0045
     20 C         139.6484  141.4057  166.3828 C.ar    1  UNL1       -0.0018
     21 C         139.3762  139.9431  166.5741 C.ar    1  UNL1        0.0111
     22 C         138.7175  139.1536  165.4821 C.ar    1  UNL1        0.0577
     23 CL        138.4454  137.6909  165.6735 Cl      1  UNL1       -0.0822
     24 C         138.3309  139.8267  164.1986 C.ar    1  UNL1        0.0111
     25 C         138.6030  141.2893  164.0071 C.ar    1  UNL1       -0.0018
     26 C         143.7324  143.0989  165.3925 C.3     1  UNL1        0.1384
     27 C         143.3716  142.0060  166.3546 C.ar    1  UNL1        0.0007
     28 C         143.2409  140.5927  165.8694 C.ar    1  UNL1       -0.0001
     29 C         142.8802  139.4998  166.8314 C.ar    1  UNL1        0.0294
     30 C         142.6501  139.8202  168.2786 C.ar    1  UNL1        0.1401
     31 F         142.2894  138.7274  169.2407 F       1  UNL1       -0.2042
     32 C         142.7809  141.2336  168.7638 C.ar    1  UNL1        0.0294
     33 C         143.1416  142.3264  167.8018 C.ar    1  UNL1       -0.0001
@<TRIPOS>BOND
     1    18    17    1
     2    18    15    1
     3    15     1    1
     4     1     2   ar
     5     2     3   ar
     6     3     4   ar
     7     4     5   ar
     8     5     6   ar
     9     6     7   ar
    10     7    11    1
    11    11    12    1
    12    11    13    1
    13    11    14    1
    14     4     8   ar
    15     8     9    2
    16     8    10   ar
    17    10    26    1
    18    26    27    1
    19    27    28   ar
    20    28    29   ar
    21    29    30   ar
    22    30    31    1
    23    30    32   ar
    24    32    33   ar
    25    18    19    1
    26    19    20   ar
    27    20    21   ar
    28    21    22   ar
    29    22    23    1
    30    22    24   ar
    31    24    25   ar
    32    10     1   ar
    33    33    27   ar
    34    25    19   ar
    35     7     3   ar
    36    15    16    1
@<TRIPOS>MOLECULE
*****
 33 36 0 0 0
SMALL
GASTEIGER

@<TRIPOS>ATOM
      1 C         142.7881  141.2673  165.7065 C.ar    1  UNL1        0.2019
      2 N         142.0980  141.7463  166.9492 N.ar    1  UNL1       -0.1961
      3 C         142.0686  140.8787  168.1725 C.ar    1  UNL1        0.1682
      4 C         142.7292  139.5322  168.1531 C.ar    1  UNL1        0.1125
      5 C         142.5383  138.9026  169.5011 C.ar    1  UNL1        0.1280
      6 N         141.7596  139.8601  170.3537 N.ar    1  UNL1       -0.1663
      7 N         141.4693  141.0814  169.5326 N.ar    1  UNL1       -0.2376
      8 C         143.4194  139.0532  166.9104 C.ar    1  UNL1        0.2676
      9 O         144.0801  137.7066  166.8909 O.2     1  UNL1       -0.2667
     10 N         143.4488  139.9209  165.6871 N.ar    1  UNL1       -0.2645
     11 C         140.7126  142.2926  169.9910 C.3     1  UNL1        0.0882
     12 C         141.9957  143.0659  170.0660 C.3     1  UNL1        0.0245
     13 C         139.4295  141.5194  169.9161 C.3     1  UNL1        0.0245
     14 C         139.9559  143.5039  170.4495 C.3     1  UNL1        0.0245
     15 N         142.8176  142.1350  164.4832 N.pl3   1  UNL1       -0.3021
     16 H         143.6751  142.3384  164.0445 H       1  UNL1        0.1498
     17 C         141.2633  144.1642  164.0172 C.3     1  UNL1        0.0262
     18 C         141.5404  142.6926  163.9284 C.3     1  UNL1        0.0943
     19 C         140.5401  141.7787  163.2848 C.ar    1  UNL1       -0.0045
     20 C         140.2942  141.8573  161.8071 C.ar    1  UNL1       -0.0018
     21 C         139.2939  140.9434  161.1637 C.ar    1  UNL1        0.0111
     22 C         138.5396  139.9508  161.9977 C.ar    1  UNL1        0.0577
     23 CL        137.5393  139.0368  161.3541 Cl      1  UNL1       -0.0822
     24 C         138.7854  139.8721  163.4753 C.ar    1  UNL1        0.0111
     25 C         139.7857  140.7861  164.1189 C.ar    1  UNL1       -0.0018
     26 C         144.1389  139.4419  164.4443 C.3     1  UNL1        0.1384
     27 C         143.3351  139.0952  163.2262 C.ar    1  UNL1        0.0007
     28 C         142.2326  138.0822  163.3185 C.ar    1  UNL1       -0.0001
     29 C         141.4288  137.7355  162.1004 C.ar    1  UNL1        0.0294
     30 C         141.7274  138.4018  160.7901 C.ar    1  UNL1        0.1401
     31 F         140.9236  138.0552  159.5720 F       1  UNL1       -0.2042
     32 C         142.8298  139.4148  160.6979 C.ar    1  UNL1        0.0294
     33 C         143.6337  139.7615  161.9159 C.ar    1  UNL1       -0.0001
@<TRIPOS>BOND
     1    18    17    1
     2    18    15    1
     3    15     1    1
     4     1     2   ar
     5     2     3   ar
     6     3     4   ar
     7     4     5   ar
     8     5     6   ar
     9     6     7   ar
    10     7    11    1
    11    11    12    1
    12    11    13    1
    13    11    14    1
    14     4     8   ar
    15     8     9    2
    16     8    10   ar
    17    10    26    1
    18    26    27    1
    19    27    28   ar
    20    28    29   ar
    21    29    30   ar
    22    30    31    1
    23    30    32   ar
    24    32    33   ar
    25    18    19    1
    26    19    20   ar
    27    20    21   ar
    28    21    22   ar
    29    22    23    1
    30    22    24   ar
    31    24    25   ar
    32    10     1   ar
    33    33    27   ar
    34    25    19   ar
    35     7     3   ar
    36    15    16    1
@<TRIPOS>MOLECULE
*****
 33 36 0 0 0
SMALL
GASTEIGER

@<TRIPOS>ATOM
      1 C         138.2292  141.0158  163.4651 C.ar    1  UNL1        0.2019
      2 N         138.3776  141.3983  162.0224 N.ar    1  UNL1       -0.1961
      3 C         138.8656  140.3895  161.0253 C.ar    1  UNL1        0.1682
      4 C         139.2052  138.9981  161.4711 C.ar    1  UNL1        0.1125
      5 C         139.6596  138.2242  160.2692 C.ar    1  UNL1        0.1280
      6 N         139.6008  139.1373  159.0806 N.ar    1  UNL1       -0.1663
      7 N         139.1100  140.4755  159.5479 N.ar    1  UNL1       -0.2376
      8 C         139.0568  138.6155  162.9139 C.ar    1  UNL1        0.2676
      9 O         139.3965  137.2242  163.3598 O.2     1  UNL1       -0.2667
     10 N         138.5688  139.6245  163.9109 N.ar    1  UNL1       -0.2645
     11 C         138.9006  141.6870  158.6886 C.3     1  UNL1        0.0882
     12 C         140.1361  142.3108  159.2669 C.3     1  UNL1        0.0245
     13 C         137.6651  141.0632  158.1103 C.3     1  UNL1        0.0245
     14 C         138.6911  142.8985  157.8293 C.3     1  UNL1        0.0245
     15 N         137.7412  142.0247  164.4621 N.pl3   1  UNL1       -0.3021
     16 H         136.8994  141.8690  164.9483 H       1  UNL1        0.1498
     17 C         137.8326  144.5800  164.9230 C.3     1  UNL1        0.0262
     18 C         138.5358  143.2709  164.7183 C.3     1  UNL1        0.0943
     19 C         140.0335  143.2080  164.7698 C.ar    1  UNL1       -0.0045
     20 C         140.7252  142.8378  166.0484 C.ar    1  UNL1       -0.0018
     21 C         142.2230  142.7750  166.0997 C.ar    1  UNL1        0.0111
     22 C         143.0291  143.0822  164.8727 C.ar    1  UNL1        0.0577
     23 CL        144.5270  143.0194  164.9241 Cl      1  UNL1       -0.0822
     24 C         142.3375  143.4524  163.5942 C.ar    1  UNL1        0.0111
     25 C         140.8397  143.5153  163.5427 C.ar    1  UNL1       -0.0018
     26 C         138.4204  139.2420  165.3538 C.3     1  UNL1        0.1384
     27 C         139.5685  139.4282  166.3010 C.ar    1  UNL1        0.0007
     28 C         140.9689  139.1383  165.8483 C.ar    1  UNL1       -0.0001
     29 C         142.1170  139.3245  166.7955 C.ar    1  UNL1        0.0294
     30 C         141.8648  139.8008  168.1953 C.ar    1  UNL1        0.1401
     31 F         143.0128  139.9871  169.1426 F       1  UNL1       -0.2042
     32 C         140.4644  140.0908  168.6480 C.ar    1  UNL1        0.0294
     33 C         139.3163  139.9045  167.7008 C.ar    1  UNL1       -0.0001
@<TRIPOS>BOND
     1    18    17    1
     2    18    15    1
     3    15     1    1
     4     1     2   ar
     5     2     3   ar
     6     3     4   ar
     7     4     5   ar
     8     5     6   ar
     9     6     7   ar
    10     7    11    1
    11    11    12    1
    12    11    13    1
    13    11    14    1
    14     4     8   ar
    15     8     9    2
    16     8    10   ar
    17    10    26    1
    18    26    27    1
    19    27    28   ar
    20    28    29   ar
    21    29    30   ar
    22    30    31    1
    23    30    32   ar
    24    32    33   ar
    25    18    19    1
    26    19    20   ar
    27    20    21   ar
    28    21    22   ar
    29    22    23    1
    30    22    24   ar
    31    24    25   ar
    32    10     1   ar
    33    33    27   ar
    34    25    19   ar
    35     7     3   ar
    36    15    16    1
@<TRIPOS>MOLECULE
*****
 33 36 0 0 0
SMALL
GASTEIGER

@<TRIPOS>ATOM
      1 C         141.9608  141.7073  163.2845 C.ar    1  UNL1        0.2019
      2 N         141.3646  141.0639  162.0678 N.ar    1  UNL1       -0.1961
      3 C         141.9732  139.8132  161.5063 C.ar    1  UNL1        0.1682
      4 C         143.1782  139.2059  162.1615 C.ar    1  UNL1        0.1125
      5 C         143.5574  137.9782  161.3876 C.ar    1  UNL1        0.1280
      6 N         142.5868  137.8267  160.2541 N.ar    1  UNL1       -0.1663
      7 N         141.6077  138.9608  160.3274 N.ar    1  UNL1       -0.2376
      8 C         143.7744  139.8494  163.3783 C.ar    1  UNL1        0.2676
      9 O         144.9794  139.2421  164.0336 O.2     1  UNL1       -0.2667
     10 N         143.1657  141.1001  163.9397 N.ar    1  UNL1       -0.2645
     11 C         140.4640  139.2004  159.3869 C.3     1  UNL1        0.0882
     12 C         141.3893  139.9081  158.4419 C.3     1  UNL1        0.0245
     13 C         139.5387  138.4926  160.3319 C.3     1  UNL1        0.0245
     14 C         139.3203  139.4399  158.4465 C.3     1  UNL1        0.0245
     15 N         141.3521  142.9580  163.8460 N.pl3   1  UNL1       -0.3021
     16 H         141.8734  143.7929  163.8667 H       1  UNL1        0.1498
     17 C         139.1017  144.1725  164.3058 C.3     1  UNL1        0.0262
     18 C         139.9490  142.9366  164.3759 C.3     1  UNL1        0.0943
     19 C         139.3930  141.6793  164.9760 C.ar    1  UNL1       -0.0045
     20 C         138.5091  140.7850  164.1581 C.ar    1  UNL1       -0.0018
     21 C         137.9532  139.5277  164.7583 C.ar    1  UNL1        0.0111
     22 C         138.2811  139.1648  166.1762 C.ar    1  UNL1        0.0577
     23 CL        137.7252  137.9074  166.7764 Cl      1  UNL1       -0.0822
     24 C         139.1650  140.0590  166.9941 C.ar    1  UNL1        0.0111
     25 C         139.7210  141.3163  166.3940 C.ar    1  UNL1       -0.0018
     26 C         143.7620  141.7436  165.1566 C.3     1  UNL1        0.1384
     27 C         143.2910  141.3437  166.5234 C.ar    1  UNL1        0.0007
     28 C         143.0363  139.8989  166.8360 C.ar    1  UNL1       -0.0001
     29 C         142.5654  139.4990  168.2029 C.ar    1  UNL1        0.0294
     30 C         142.3490  140.5439  169.2571 C.ar    1  UNL1        0.1401
     31 F         141.8781  140.1441  170.6240 F       1  UNL1       -0.2042
     32 C         142.6037  141.9887  168.9445 C.ar    1  UNL1        0.0294
     33 C         143.0747  142.3885  167.5776 C.ar    1  UNL1       -0.0001
@<TRIPOS>BOND
     1    18    17    1
     2    18    15    1
     3    15     1    1
     4     1     2   ar
     5     2     3   ar
     6     3     4   ar
     7     4     5   ar
     8     5     6   ar
     9     6     7   ar
    10     7    11    1
    11    11    12    1
    12    11    13    1
    13    11    14    1
    14     4     8   ar
    15     8     9    2
    16     8    10   ar
    17    10    26    1
    18    26    27    1
    19    27    28   ar
    20    28    29   ar
    21    29    30   ar
    22    30    31    1
    23    30    32   ar
    24    32    33   ar
    25    18    19    1
    26    19    20   ar
    27    20    21   ar
    28    21    22   ar
    29    22    23    1
    30    22    24   ar
    31    24    25   ar
    32    10     1   ar
    33    33    27   ar
    34    25    19   ar
    35     7     3   ar
    36    15    16    1
