@<TRIPOS>MOLECULE
*****
 29 32 0 0 0
SMALL
GASTEIGER

@<TRIPOS>ATOM
      1 C         141.4504  142.0879  166.2627 C.2     1  UNL1        0.0020
      2 C         140.9582  142.5236  167.6110 C.2     1  UNL1        0.0130
      3 C         141.2367  141.6800  168.8196 C.3     1  UNL1        0.1542
      4 C         140.4661  142.9593  168.9593 C.3     1  UNL1        0.0614
      5 C         139.9740  143.3949  170.3077 C.3     1  UNL1        0.0725
      6 N         140.2525  142.5513  171.5163 N.3     1  UNL1       -0.2972
      7 C         141.0230  141.2720  171.3765 C.3     1  UNL1        0.0725
      8 C         141.5151  140.8363  170.0282 C.3     1  UNL1        0.0614
      9 O         142.0073  140.4006  168.6799 O.3     1  UNL1       -0.4785
     10 C         142.4994  139.9650  167.3316 C.ar    1  UNL1        0.1386
     11 C         143.2700  138.6856  167.1918 C.ar    1  UNL1        0.0369
     12 C         143.7621  138.2500  165.8435 C.ar    1  UNL1        0.0031
     13 C         143.4837  139.0936  164.6349 C.ar    1  UNL1        0.0002
     14 C         142.7131  140.3729  164.7746 C.ar    1  UNL1        0.0030
     15 C         142.2209  140.8086  166.1230 C.ar    1  UNL1        0.0338
     16 H         139.3480  142.3077  171.9200 H       1  UNL1        0.1233
     17 C         140.6150  144.6189  162.6369 C.ar    1  UNL1        0.0536
     18 C         141.9266  144.7451  163.3536 C.ar    1  UNL1        0.0045
     19 C         142.2050  143.9014  164.5622 C.ar    1  UNL1        0.0001
     20 C         141.1719  142.9316  165.0541 C.ar    1  UNL1       -0.0001
     21 C         139.8602  142.8053  164.3373 C.ar    1  UNL1        0.0001
     22 C         139.5818  143.6490  163.1287 C.ar    1  UNL1        0.0045
     23 N         140.7350  144.9765  160.0663 N.am    1  UNL1       -0.2761
     24 C         140.3365  145.4625  161.4283 C.2     1  UNL1        0.2490
     25 O         139.6596  146.7923  161.5817 O.2     1  UNL1       -0.2699
     26 C         141.4214  145.8267  157.7092 C.3     1  UNL1        0.0233
     27 C         140.4566  145.8201  158.8577 C.3     1  UNL1        0.0938
     28 C         141.4120  143.6467  159.9130 C.3     1  UNL1        0.0938
     29 C         140.5980  142.4188  159.6311 C.3     1  UNL1        0.0233
@<TRIPOS>BOND
     1    26    27    1
     2    27    23    1
     3    23    28    1
     4    28    29    1
     5    23    24   am
     6    24    25    2
     7    24    17    1
     8    17    18   ar
     9    18    19   ar
    10    19    20   ar
    11    20     1    1
    12     1     2    2
    13     2     3    1
    14     3     4    1
    15     4     5    1
    16     5     6    1
    17     6     7    1
    18     7     8    1
    19     3     9    1
    20     9    10    1
    21    10    11   ar
    22    11    12   ar
    23    12    13   ar
    24    13    14   ar
    25    14    15   ar
    26    20    21   ar
    27    21    22   ar
    28    22    17   ar
    29    15     1    1
    30     8     3    1
    31    15    10   ar
    32     6    16    1
@<TRIPOS>MOLECULE
*****
 29 32 0 0 0
SMALL
GASTEIGER

@<TRIPOS>ATOM
      1 C         139.7695  141.9041  165.7503 C.2     1  UNL1        0.0020
      2 C         140.1232  142.4397  167.1061 C.2     1  UNL1        0.0130
      3 C         140.0972  141.5330  168.3008 C.3     1  UNL1        0.1542
      4 C         140.4768  142.9752  168.4619 C.3     1  UNL1        0.0614
      5 C         140.8305  143.5107  169.8176 C.3     1  UNL1        0.0725
      6 N         140.8045  142.6040  171.0123 N.3     1  UNL1       -0.2972
      7 C         140.4249  141.1619  170.8512 C.3     1  UNL1        0.0725
      8 C         140.0713  140.6264  169.4955 C.3     1  UNL1        0.0614
      9 O         139.7176  140.0908  168.1397 O.3     1  UNL1       -0.4785
     10 C         139.3639  139.5553  166.7839 C.ar    1  UNL1        0.1386
     11 C         138.9843  138.1131  166.6228 C.ar    1  UNL1        0.0369
     12 C         138.6307  137.5776  165.2670 C.ar    1  UNL1        0.0031
     13 C         138.6566  138.4842  164.0723 C.ar    1  UNL1        0.0002
     14 C         139.0362  139.9264  164.2334 C.ar    1  UNL1        0.0030
     15 C         139.3899  140.4620  165.5892 C.ar    1  UNL1        0.0338
     16 H         140.1445  143.0099  171.6757 H       1  UNL1        0.1233
     17 C         139.8474  144.6241  162.1662 C.ar    1  UNL1        0.0536
     18 C         141.1332  144.1478  162.7744 C.ar    1  UNL1        0.0045
     19 C         141.1072  143.2412  163.9691 C.ar    1  UNL1        0.0001
     20 C         139.7955  142.8108  164.5556 C.ar    1  UNL1       -0.0001
     21 C         138.5096  143.2871  163.9475 C.ar    1  UNL1        0.0001
     22 C         138.5356  144.1938  162.7528 C.ar    1  UNL1        0.0045
     23 N         140.2952  144.9977  159.6345 N.am    1  UNL1       -0.2761
     24 C         139.8734  145.5308  160.9716 C.2     1  UNL1        0.2490
     25 O         139.4776  146.9707  161.1140 O.2     1  UNL1       -0.2699
     26 C         141.5103  145.9064  157.5255 C.3     1  UNL1        0.0233
     27 C         140.3211  145.9044  158.4398 C.3     1  UNL1        0.0938
     28 C         140.6910  143.5579  159.4920 C.3     1  UNL1        0.0938
     29 C         139.6704  142.5360  159.0868 C.3     1  UNL1        0.0233
@<TRIPOS>BOND
     1    26    27    1
     2    27    23    1
     3    23    28    1
     4    28    29    1
     5    23    24   am
     6    24    25    2
     7    24    17    1
     8    17    18   ar
     9    18    19   ar
    10    19    20   ar
    11    20     1    1
    12     1     2    2
    13     2     3    1
    14     3     4    1
    15     4     5    1
    16     5     6    1
    17     6     7    1
    18     7     8    1
    19     3     9    1
    20     9    10    1
    21    10    11   ar
    22    11    12   ar
    23    12    13   ar
    24    13    14   ar
    25    14    15   ar
    26    20    21   ar
    27    21    22   ar
    28    22    17   ar
    29    15     1    1
    30     8     3    1
    31    15    10   ar
    32     6    16    1
@<TRIPOS>MOLECULE
*****
 29 32 0 0 0
SMALL
GASTEIGER

@<TRIPOS>ATOM
      1 C         141.4997  140.9616  166.3193 C.2     1  UNL1        0.0020
      2 C         142.1237  141.5851  167.5325 C.2     1  UNL1        0.0130
      3 C         141.4840  141.4112  168.8781 C.3     1  UNL1        0.1542
      4 C         142.7476  142.2086  168.7458 C.3     1  UNL1        0.0614
      5 C         143.3716  142.8320  169.9590 C.3     1  UNL1        0.0725
      6 N         142.7319  142.6582  171.3046 N.3     1  UNL1       -0.2972
      7 C         141.4684  141.8608  171.4370 C.3     1  UNL1        0.0725
      8 C         140.8444  141.2374  170.2237 C.3     1  UNL1        0.0614
      9 O         140.2204  140.6139  169.0105 O.3     1  UNL1       -0.4785
     10 C         139.5965  139.9904  167.7973 C.ar    1  UNL1        0.1386
     11 C         138.3328  139.1930  167.9296 C.ar    1  UNL1        0.0369
     12 C         137.7089  138.5696  166.7164 C.ar    1  UNL1        0.0031
     13 C         138.3485  138.7434  165.3708 C.ar    1  UNL1        0.0002
     14 C         139.6121  139.5408  165.2384 C.ar    1  UNL1        0.0030
     15 C         140.2361  140.1643  166.4517 C.ar    1  UNL1        0.0338
     16 H         142.5282  143.5935  171.6568 H       1  UNL1        0.1233
     17 C         143.4186  141.4833  162.2825 C.ar    1  UNL1        0.0536
     18 C         142.2924  142.3821  162.6994 C.ar    1  UNL1        0.0045
     19 C         141.6528  142.2082  164.0450 C.ar    1  UNL1        0.0001
     20 C         142.1393  141.1355  164.9737 C.ar    1  UNL1       -0.0001
     21 C         143.2655  140.2366  164.5568 C.ar    1  UNL1        0.0001
     22 C         143.9052  140.4105  163.2112 C.ar    1  UNL1        0.0045
     23 N         143.5877  140.8386  159.7714 N.am    1  UNL1       -0.2761
     24 C         144.0582  141.6572  160.9369 C.2     1  UNL1        0.2490
     25 O         145.1684  142.6497  160.7568 O.2     1  UNL1       -0.2699
     26 C         143.7571  142.1009  157.5068 C.3     1  UNL1        0.0233
     27 C         144.2273  141.0125  158.4258 C.3     1  UNL1        0.0938
     28 C         142.4774  139.8460  159.9514 C.3     1  UNL1        0.0938
     29 C         142.7925  138.3871  160.0999 C.3     1  UNL1        0.0233
@<TRIPOS>BOND
     1    26    27    1
     2    27    23    1
     3    23    28    1
     4    28    29    1
     5    23    24   am
     6    24    25    2
     7    24    17    1
     8    17    18   ar
     9    18    19   ar
    10    19    20   ar
    11    20     1    1
    12     1     2    2
    13     2     3    1
    14     3     4    1
    15     4     5    1
    16     5     6    1
    17     6     7    1
    18     7     8    1
    19     3     9    1
    20     9    10    1
    21    10    11   ar
    22    11    12   ar
    23    12    13   ar
    24    13    14   ar
    25    14    15   ar
    26    20    21   ar
    27    21    22   ar
    28    22    17   ar
    29    15     1    1
    30     8     3    1
    31    15    10   ar
    32     6    16    1
@<TRIPOS>MOLECULE
*****
 29 32 0 0 0
SMALL
GASTEIGER

@<TRIPOS>ATOM
      1 C         141.2942  140.1612  166.2455 C.2     1  UNL1        0.0020
      2 C         142.1572  140.9791  167.1601 C.2     1  UNL1        0.0130
      3 C         141.7119  141.2520  168.5662 C.3     1  UNL1        0.1542
      4 C         143.0201  141.7969  168.0746 C.3     1  UNL1        0.0614
      5 C         143.8830  142.6148  168.9892 C.3     1  UNL1        0.0725
      6 N         143.4378  142.8877  170.3953 N.3     1  UNL1       -0.2972
      7 C         142.1296  142.3428  170.8869 C.3     1  UNL1        0.0725
      8 C         141.2667  141.5250  169.9724 C.3     1  UNL1        0.0614
      9 O         140.4037  140.7071  169.0578 O.3     1  UNL1       -0.4785
     10 C         139.5407  139.8893  168.1433 C.ar    1  UNL1        0.1386
     11 C         138.2325  139.3443  168.6348 C.ar    1  UNL1        0.0369
     12 C         137.3696  138.5265  167.7203 C.ar    1  UNL1        0.0031
     13 C         137.8148  138.2535  166.3141 C.ar    1  UNL1        0.0002
     14 C         139.1230  138.7984  165.8225 C.ar    1  UNL1        0.0030
     15 C         139.9860  139.6163  166.7371 C.ar    1  UNL1        0.0338
     16 H         143.3917  143.9015  170.4980 H       1  UNL1        0.1233
     17 C         142.6299  139.3424  162.0271 C.ar    1  UNL1        0.0536
     18 C         142.7936  138.2899  163.0832 C.ar    1  UNL1        0.0045
     19 C         142.3484  138.5629  164.4894 C.ar    1  UNL1        0.0001
     20 C         141.7394  139.8883  164.8394 C.ar    1  UNL1       -0.0001
     21 C         141.5757  140.9408  163.7832 C.ar    1  UNL1        0.0001
     22 C         142.0210  140.6678  162.3770 C.ar    1  UNL1        0.0045
     23 N         142.0684  138.6899  159.5757 N.am    1  UNL1       -0.2761
     24 C         143.0752  139.0694  160.6209 C.2     1  UNL1        0.2490
     25 O         144.5272  139.1760  160.2600 O.2     1  UNL1       -0.2699
     26 C         142.7251  137.0046  157.7106 C.3     1  UNL1        0.0233
     27 C         142.5137  138.4170  158.1696 C.3     1  UNL1        0.0938
     28 C         140.6164  138.5834  159.9367 C.3     1  UNL1        0.0938
     29 C         139.6330  139.5754  159.3902 C.3     1  UNL1        0.0233
@<TRIPOS>BOND
     1    26    27    1
     2    27    23    1
     3    23    28    1
     4    28    29    1
     5    23    24   am
     6    24    25    2
     7    24    17    1
     8    17    18   ar
     9    18    19   ar
    10    19    20   ar
    11    20     1    1
    12     1     2    2
    13     2     3    1
    14     3     4    1
    15     4     5    1
    16     5     6    1
    17     6     7    1
    18     7     8    1
    19     3     9    1
    20     9    10    1
    21    10    11   ar
    22    11    12   ar
    23    12    13   ar
    24    13    14   ar
    25    14    15   ar
    26    20    21   ar
    27    21    22   ar
    28    22    17   ar
    29    15     1    1
    30     8     3    1
    31    15    10   ar
    32     6    16    1
@<TRIPOS>MOLECULE
*****
 29 32 0 0 0
SMALL
GASTEIGER

@<TRIPOS>ATOM
      1 C         140.2461  142.0254  162.4319 C.2     1  UNL1        0.0020
      2 C         140.5957  143.1530  161.5065 C.2     1  UNL1        0.0130
      3 C         140.0141  143.1968  160.1245 C.3     1  UNL1        0.1542
      4 C         140.9452  144.2806  160.5811 C.3     1  UNL1        0.0614
      5 C         141.2947  145.4081  159.6557 C.3     1  UNL1        0.0725
      6 N         140.7132  145.4519  158.2737 N.3     1  UNL1       -0.2972
      7 C         139.7821  144.3681  157.8171 C.3     1  UNL1        0.0725
      8 C         139.4326  143.2406  158.7425 C.3     1  UNL1        0.0614
      9 O         139.0830  142.1130  159.6680 O.3     1  UNL1       -0.4785
     10 C         138.7335  140.9854  160.5934 C.ar    1  UNL1        0.1386
     11 C         137.8024  139.9016  160.1368 C.ar    1  UNL1        0.0369
     12 C         137.4528  138.7740  161.0622 C.ar    1  UNL1        0.0031
     13 C         138.0344  138.7303  162.4442 C.ar    1  UNL1        0.0002
     14 C         138.9654  139.8140  162.9008 C.ar    1  UNL1        0.0030
     15 C         139.3150  140.9416  161.9754 C.ar    1  UNL1        0.0338
     16 H         141.4991  145.4581  157.6236 H       1  UNL1        0.1233
     17 C         141.9907  141.8941  166.5779 C.ar    1  UNL1        0.0536
     18 C         140.7745  142.7276  166.3020 C.ar    1  UNL1        0.0045
     19 C         140.1930  142.7714  164.9200 C.ar    1  UNL1        0.0001
     20 C         140.8276  141.9816  163.8139 C.ar    1  UNL1       -0.0001
     21 C         142.0438  141.1480  164.0898 C.ar    1  UNL1        0.0001
     22 C         142.6253  141.1043  165.4718 C.ar    1  UNL1        0.0045
     23 N         142.0293  140.8854  168.9718 N.am    1  UNL1       -0.2761
     24 C         142.5722  141.8503  167.9599 C.2     1  UNL1        0.2490
     25 O         143.6967  142.7716  168.3299 O.2     1  UNL1       -0.2699
     26 C         142.0706  141.7435  171.4238 C.3     1  UNL1        0.0233
     27 C         142.6108  140.8416  170.3538 C.3     1  UNL1        0.0938
     28 C         140.9048  139.9641  168.6018 C.3     1  UNL1        0.0938
     29 C         139.4885  140.3459  168.9149 C.3     1  UNL1        0.0233
@<TRIPOS>BOND
     1    26    27    1
     2    27    23    1
     3    23    28    1
     4    28    29    1
     5    23    24   am
     6    24    25    2
     7    24    17    1
     8    17    18   ar
     9    18    19   ar
    10    19    20   ar
    11    20     1    1
    12     1     2    2
    13     2     3    1
    14     3     4    1
    15     4     5    1
    16     5     6    1
    17     6     7    1
    18     7     8    1
    19     3     9    1
    20     9    10    1
    21    10    11   ar
    22    11    12   ar
    23    12    13   ar
    24    13    14   ar
    25    14    15   ar
    26    20    21   ar
    27    21    22   ar
    28    22    17   ar
    29    15     1    1
    30     8     3    1
    31    15    10   ar
    32     6    16    1
@<TRIPOS>MOLECULE
*****
 29 32 0 0 0
SMALL
GASTEIGER

@<TRIPOS>ATOM
      1 C         140.4223  142.3928  161.4957 C.2     1  UNL1        0.0020
      2 C         141.8967  142.1204  161.5414 C.2     1  UNL1        0.0130
      3 C         142.7046  142.5621  162.7255 C.3     1  UNL1        0.1542
      4 C         143.3710  141.8480  161.5871 C.3     1  UNL1        0.0614
      5 C         144.8453  141.5756  161.6329 C.3     1  UNL1        0.0725
      6 N         145.6532  142.0173  162.8170 N.3     1  UNL1       -0.2972
      7 C         144.9869  142.7314  163.9553 C.3     1  UNL1        0.0725
      8 C         143.5126  143.0038  163.9096 C.3     1  UNL1        0.0614
      9 O         142.0382  143.2763  163.8639 O.3     1  UNL1       -0.4785
     10 C         140.5639  143.5487  163.8182 C.ar    1  UNL1        0.1386
     11 C         139.8974  144.2628  164.9566 C.ar    1  UNL1        0.0369
     12 C         138.4231  144.5352  164.9109 C.ar    1  UNL1        0.0031
     13 C         137.6151  144.0935  163.7267 C.ar    1  UNL1        0.0002
     14 C         138.2815  143.3794  162.5884 C.ar    1  UNL1        0.0030
     15 C         139.7559  143.1069  162.6341 C.ar    1  UNL1        0.0338
     16 H         146.3786  142.6407  162.4625 H       1  UNL1        0.1233
     17 C         137.9984  141.0677  157.9434 C.ar    1  UNL1        0.0536
     18 C         138.4513  142.4934  158.0526 C.ar    1  UNL1        0.0045
     19 C         139.2593  142.9352  159.2367 C.ar    1  UNL1        0.0001
     20 C         139.6143  141.9511  160.3116 C.ar    1  UNL1       -0.0001
     21 C         139.1614  140.5252  160.2024 C.ar    1  UNL1        0.0001
     22 C         138.3535  140.0835  159.0183 C.ar    1  UNL1        0.0045
     23 N         137.8809  140.1741  155.5067 N.am    1  UNL1       -0.2761
     24 C         137.1905  140.6259  156.7593 C.2     1  UNL1        0.2490
     25 O         135.6920  140.6361  156.8278 O.2     1  UNL1       -0.2699
     26 C         136.6491  138.2990  154.1964 C.3     1  UNL1        0.0233
     27 C         137.0729  139.7324  154.3226 C.3     1  UNL1        0.0938
     28 C         139.3793  140.1639  155.4381 C.3     1  UNL1        0.0938
     29 C         140.1339  138.8962  155.7093 C.3     1  UNL1        0.0233
@<TRIPOS>BOND
     1    26    27    1
     2    27    23    1
     3    23    28    1
     4    28    29    1
     5    23    24   am
     6    24    25    2
     7    24    17    1
     8    17    18   ar
     9    18    19   ar
    10    19    20   ar
    11    20     1    1
    12     1     2    2
    13     2     3    1
    14     3     4    1
    15     4     5    1
    16     5     6    1
    17     6     7    1
    18     7     8    1
    19     3     9    1
    20     9    10    1
    21    10    11   ar
    22    11    12   ar
    23    12    13   ar
    24    13    14   ar
    25    14    15   ar
    26    20    21   ar
    27    21    22   ar
    28    22    17   ar
    29    15     1    1
    30     8     3    1
    31    15    10   ar
    32     6    16    1
@<TRIPOS>MOLECULE
*****
 29 32 0 0 0
SMALL
GASTEIGER

@<TRIPOS>ATOM
      1 C         140.2855  140.3557  162.4587 C.2     1  UNL1        0.0020
      2 C         140.2975  141.8552  162.4969 C.2     1  UNL1        0.0130
      3 C         139.6868  142.5807  163.6591 C.3     1  UNL1        0.1542
      4 C         140.3095  143.3546  162.5352 C.3     1  UNL1        0.0614
      5 C         140.3215  144.8540  162.5735 C.3     1  UNL1        0.0725
      6 N         139.7108  145.5795  163.7357 N.3     1  UNL1       -0.2972
      7 C         139.0881  144.8056  164.8596 C.3     1  UNL1        0.0725
      8 C         139.0761  143.3061  164.8213 C.3     1  UNL1        0.0614
      9 O         139.0641  141.8066  164.7831 O.3     1  UNL1       -0.4785
     10 C         139.0522  140.3072  164.7448 C.ar    1  UNL1        0.1386
     11 C         138.4295  139.5332  165.8688 C.ar    1  UNL1        0.0369
     12 C         138.4175  138.0337  165.8305 C.ar    1  UNL1        0.0031
     13 C         139.0282  137.3082  164.6683 C.ar    1  UNL1        0.0002
     14 C         139.6509  138.0822  163.5444 C.ar    1  UNL1        0.0030
     15 C         139.6629  139.5817  163.5826 C.ar    1  UNL1        0.0338
     16 H         138.9825  146.1841  163.3556 H       1  UNL1        0.1233
     17 C         142.1176  138.1792  158.9721 C.ar    1  UNL1        0.0536
     18 C         140.6616  138.5388  158.9505 C.ar    1  UNL1        0.0045
     19 C         140.0509  139.2643  160.1127 C.ar    1  UNL1        0.0001
     20 C         140.8962  139.6302  161.2965 C.ar    1  UNL1       -0.0001
     21 C         142.3524  139.2706  161.3181 C.ar    1  UNL1        0.0001
     22 C         142.9631  138.5451  160.1559 C.ar    1  UNL1        0.0045
     23 N         143.2379  138.2247  156.6284 N.am    1  UNL1       -0.2761
     24 C         142.7284  137.4537  157.8099 C.2     1  UNL1        0.2490
     25 O         142.8295  135.9572  157.8292 O.2     1  UNL1       -0.2699
     26 C         142.9706  136.7758  154.4884 C.3     1  UNL1        0.0233
     27 C         143.8486  137.4992  155.4662 C.3     1  UNL1        0.0938
     28 C         143.1368  139.7212  156.6091 C.3     1  UNL1        0.0938
     29 C         144.3630  140.5585  156.8216 C.3     1  UNL1        0.0233
@<TRIPOS>BOND
     1    26    27    1
     2    27    23    1
     3    23    28    1
     4    28    29    1
     5    23    24   am
     6    24    25    2
     7    24    17    1
     8    17    18   ar
     9    18    19   ar
    10    19    20   ar
    11    20     1    1
    12     1     2    2
    13     2     3    1
    14     3     4    1
    15     4     5    1
    16     5     6    1
    17     6     7    1
    18     7     8    1
    19     3     9    1
    20     9    10    1
    21    10    11   ar
    22    11    12   ar
    23    12    13   ar
    24    13    14   ar
    25    14    15   ar
    26    20    21   ar
    27    21    22   ar
    28    22    17   ar
    29    15     1    1
    30     8     3    1
    31    15    10   ar
    32     6    16    1
@<TRIPOS>MOLECULE
*****
 29 32 0 0 0
SMALL
GASTEIGER

@<TRIPOS>ATOM
      1 C         141.0631  140.1585  161.5105 C.2     1  UNL1        0.0020
      2 C         142.4015  140.8331  161.5721 C.2     1  UNL1        0.0130
      3 C         143.3073  140.5967  162.7441 C.3     1  UNL1        0.1542
      4 C         143.7398  141.5077  161.6338 C.3     1  UNL1        0.0614
      5 C         145.0781  142.1823  161.6954 C.3     1  UNL1        0.0725
      6 N         145.9839  141.9459  162.8674 N.3     1  UNL1       -0.2972
      7 C         145.5514  141.0349  163.9778 C.3     1  UNL1        0.0725
      8 C         144.2131  140.3603  163.9161 C.3     1  UNL1        0.0614
      9 O         142.8747  139.6856  163.8545 O.3     1  UNL1       -0.4785
     10 C         141.5364  139.0110  163.7928 C.ar    1  UNL1        0.1386
     11 C         141.1039  138.0999  164.9032 C.ar    1  UNL1        0.0369
     12 C         139.7656  137.4253  164.8416 C.ar    1  UNL1        0.0031
     13 C         138.8598  137.6618  163.6696 C.ar    1  UNL1        0.0002
     14 C         139.2923  138.5728  162.5592 C.ar    1  UNL1        0.0030
     15 C         140.6306  139.2475  162.6208 C.ar    1  UNL1        0.0338
     16 H         146.1651  142.8573  163.2880 H       1  UNL1        0.1233
     17 C         138.3457  140.8678  157.9945 C.ar    1  UNL1        0.0536
     18 C         139.2418  139.6652  158.0192 C.ar    1  UNL1        0.0045
     19 C         140.1476  139.4287  159.1912 C.ar    1  UNL1        0.0001
     20 C         140.1573  140.3949  160.3385 C.ar    1  UNL1       -0.0001
     21 C         139.2612  141.5976  160.3138 C.ar    1  UNL1        0.0001
     22 C         138.3554  141.8341  159.1418 C.ar    1  UNL1        0.0045
     23 N         137.9237  141.9054  155.6503 N.am    1  UNL1       -0.2761
     24 C         137.4399  141.1042  156.8225 C.2     1  UNL1        0.2490
     25 O         136.0502  140.5395  156.8227 O.2     1  UNL1       -0.2699
     26 C         136.6424  143.5415  154.0909 C.3     1  UNL1        0.0233
     27 C         137.0179  142.1418  154.4783 C.3     1  UNL1        0.0938
     28 C         139.3133  142.4702  155.6501 C.3     1  UNL1        0.0938
     29 C         139.5670  143.8383  156.2101 C.3     1  UNL1        0.0233
@<TRIPOS>BOND
     1    26    27    1
     2    27    23    1
     3    23    28    1
     4    28    29    1
     5    23    24   am
     6    24    25    2
     7    24    17    1
     8    17    18   ar
     9    18    19   ar
    10    19    20   ar
    11    20     1    1
    12     1     2    2
    13     2     3    1
    14     3     4    1
    15     4     5    1
    16     5     6    1
    17     6     7    1
    18     7     8    1
    19     3     9    1
    20     9    10    1
    21    10    11   ar
    22    11    12   ar
    23    12    13   ar
    24    13    14   ar
    25    14    15   ar
    26    20    21   ar
    27    21    22   ar
    28    22    17   ar
    29    15     1    1
    30     8     3    1
    31    15    10   ar
    32     6    16    1
@<TRIPOS>MOLECULE
*****
 29 32 0 0 0
SMALL
GASTEIGER

@<TRIPOS>ATOM
      1 C         141.8610  141.4882  161.7484 C.2     1  UNL1        0.0020
      2 C         140.5290  142.1134  162.0403 C.2     1  UNL1        0.0130
      3 C         140.3800  143.0543  163.1990 C.3     1  UNL1        0.1542
      4 C         139.1972  142.7386  162.3322 C.3     1  UNL1        0.0614
      5 C         137.8653  143.3639  162.6241 C.3     1  UNL1        0.0725
      6 N         137.7163  144.3047  163.7828 N.3     1  UNL1       -0.2972
      7 C         138.8990  144.6204  164.6495 C.3     1  UNL1        0.0725
      8 C         140.2309  143.9952  164.3577 C.3     1  UNL1        0.0614
      9 O         141.5628  143.3700  164.0658 O.3     1  UNL1       -0.4785
     10 C         142.8947  142.7447  163.7739 C.ar    1  UNL1        0.1386
     11 C         144.0775  143.0604  164.6407 C.ar    1  UNL1        0.0369
     12 C         145.4094  142.4352  164.3488 C.ar    1  UNL1        0.0031
     13 C         145.5585  141.4943  163.1901 C.ar    1  UNL1        0.0002
     14 C         144.3757  141.1786  162.3233 C.ar    1  UNL1        0.0030
     15 C         143.0437  141.8039  162.6152 C.ar    1  UNL1        0.0338
     16 H         137.0011  143.9092  164.3931 H       1  UNL1        0.1233
     17 C         142.3082  138.6656  158.2724 C.ar    1  UNL1        0.0536
     18 C         142.1097  138.1244  159.6572 C.ar    1  UNL1        0.0045
     19 C         141.9606  139.0653  160.8159 C.ar    1  UNL1        0.0001
     20 C         142.0100  140.5473  160.5898 C.ar    1  UNL1       -0.0001
     21 C         142.2085  141.0885  159.2049 C.ar    1  UNL1        0.0001
     22 C         142.3576  140.1476  158.0462 C.ar    1  UNL1        0.0045
     23 N         141.2398  137.2020  156.4106 N.am    1  UNL1       -0.2761
     24 C         142.4573  137.7247  157.1137 C.2     1  UNL1        0.2490
     25 O         143.8239  137.3065  156.6582 O.2     1  UNL1       -0.2699
     26 C         141.6343  134.8018  155.4976 C.3     1  UNL1        0.0233
     27 C         141.3888  136.2611  155.2520 C.3     1  UNL1        0.0938
     28 C         139.8731  137.6201  156.8662 C.3     1  UNL1        0.0938
     29 C         139.2110  138.8171  156.2508 C.3     1  UNL1        0.0233
@<TRIPOS>BOND
     1    26    27    1
     2    27    23    1
     3    23    28    1
     4    28    29    1
     5    23    24   am
     6    24    25    2
     7    24    17    1
     8    17    18   ar
     9    18    19   ar
    10    19    20   ar
    11    20     1    1
    12     1     2    2
    13     2     3    1
    14     3     4    1
    15     4     5    1
    16     5     6    1
    17     6     7    1
    18     7     8    1
    19     3     9    1
    20     9    10    1
    21    10    11   ar
    22    11    12   ar
    23    12    13   ar
    24    13    14   ar
    25    14    15   ar
    26    20    21   ar
    27    21    22   ar
    28    22    17   ar
    29    15     1    1
    30     8     3    1
    31    15    10   ar
    32     6    16    1
