@<TRIPOS>MOLECULE
*****
 51 58 0 0 0
SMALL
GASTEIGER

@<TRIPOS>ATOM
      1 C         143.5416  140.7721  156.2906 C.ar    1  UNL1        0.1063
      2 C         142.7256  141.5014  157.3164 C.ar    1  UNL1        0.0210
      3 C         143.3713  142.5331  158.1931 C.ar    1  UNL1        0.0186
      4 C         144.8328  142.8357  158.0440 C.ar    1  UNL1        0.0784
      5 N         145.6488  142.1064  157.0181 N.ar    1  UNL1       -0.2911
      6 C         147.1104  142.4090  156.8691 C.3     1  UNL1        0.1336
      7 C         145.0032  141.0747  156.1414 C.ar    1  UNL1        0.2744
      8 O         145.8192  140.3454  155.1156 O.2     1  UNL1       -0.2656
      9 C         142.5552  143.2624  159.2190 C.ar    1  UNL1        0.0041
     10 C         141.8606  144.5408  158.8544 C.ar    1  UNL1        0.0206
     11 C         141.0446  145.2700  159.8803 C.ar    1  UNL1        0.1003
     12 N         140.9232  144.7207  161.2708 N.ar    1  UNL1       -0.2290
     13 C         141.6178  143.4422  161.6354 C.ar    1  UNL1        0.1360
     14 C         142.4338  142.7130  160.6095 C.ar    1  UNL1        0.0390
     15 N         141.4964  142.8928  163.0258 N.am    1  UNL1       -0.2373
     16 C         140.2514  142.1655  163.4390 C.3     1  UNL1        0.1244
     17 C         140.1300  141.6162  164.8295 C.3     1  UNL1        0.1277
     18 N         141.2538  141.7941  165.8069 N.ar    1  UNL1       -0.3256
     19 C         142.4989  142.5215  165.3938 C.ar    1  UNL1        0.1140
     20 C         143.4341  142.5423  166.5664 C.ar    1  UNL1        0.0187
     21 C         142.7670  141.8279  167.7042 C.ar    1  UNL1       -0.0089
     22 C         141.4194  141.3655  167.2348 C.ar    1  UNL1        0.0333
     23 C         140.7522  140.6510  168.3725 C.3     1  UNL1        0.0438
     24 C         141.6875  140.6719  169.5451 C.3     1  UNL1        0.0096
     25 C         140.5899  139.9159  170.2333 C.3     1  UNL1        0.0007
     26 C         142.3932  140.5347  170.8615 C.3     1  UNL1        0.0007
     27 C         142.9326  141.3992  169.1320 C.3     1  UNL1        0.0279
     28 C         142.6203  143.0708  164.0033 C.2     1  UNL1        0.2697
     29 O         143.8654  143.7981  163.5903 O.2     1  UNL1       -0.2679
     30 C         143.1284  141.4345  160.9741 C.3     1  UNL1        0.1664
     31 O         144.5284  141.4685  161.5119 O.3     1  UNL1       -0.3771
     32 H         145.1314  141.7904  160.8237 H       1  UNL1        0.2109
     33 N         142.8960  139.7404  155.4139 N.pl3   1  UNL1       -0.2942
     34 H         142.3823  140.0193  154.6217 H       1  UNL1        0.1537
     35 C         143.3075  135.3701  156.4047 C.ar    1  UNL1        0.0674
     36 C         144.1186  135.9666  155.2928 C.ar    1  UNL1        0.0190
     37 C         143.9814  137.4233  154.9625 C.ar    1  UNL1        0.0357
     38 C         143.0331  138.2836  155.7442 C.ar    1  UNL1        0.1324
     39 N         142.2221  137.6871  156.8560 N.ar    1  UNL1       -0.2278
     40 C         142.3592  136.2303  157.1864 C.ar    1  UNL1        0.1147
     41 C         141.3529  133.3879  155.2864 C.3     1  UNL1        0.0229
     42 C         142.4673  132.9223  156.1758 C.3     1  UNL1        0.0889
     43 C         142.6046  131.4655  156.5061 C.3     1  UNL1        0.0921
     44 N         143.7190  130.9999  157.3955 N.3     1  UNL1       -0.2668
     45 C         144.6963  131.9910  157.9547 C.3     1  UNL1        0.0939
     46 C         144.5591  133.4477  157.6245 C.3     1  UNL1        0.1081
     47 N         143.4446  133.9134  156.7350 N.pl3   1  UNL1       -0.3051
     48 C         143.8562  129.5431  157.7259 C.3     1  UNL1        0.1173
     49 C         143.1997  128.2812  157.2500 C.3     1  UNL1        0.1606
     50 O         144.0504  127.4830  158.1931 O.3     1  UNL1       -0.3507
     51 C         144.7069  128.7449  158.6689 C.3     1  UNL1        0.1606
@<TRIPOS>BOND
     1    42    41    1
     2    42    43    1
     3    43    44    1
     4    44    48    1
     5    48    49    1
     6    49    50    1
     7    50    51    1
     8    44    45    1
     9    45    46    1
    10    46    47    1
    11    47    35    1
    12    35    36   ar
    13    36    37   ar
    14    37    38   ar
    15    38    33    1
    16    33     1    1
    17     1     2   ar
    18     2     3   ar
    19     3     9    1
    20     9    10   ar
    21    10    11   ar
    22    11    12   ar
    23    12    13   ar
    24    13    15    1
    25    15    16    1
    26    16    17    1
    27    17    18    1
    28    18    19   ar
    29    19    20   ar
    30    20    21   ar
    31    21    22   ar
    32    22    23    1
    33    23    24    1
    34    24    25    1
    35    24    26    1
    36    24    27    1
    37    19    28    1
    38    28    29    2
    39    13    14   ar
    40    14    30    1
    41    30    31    1
    42     3     4   ar
    43     4     5   ar
    44     5     6    1
    45     5     7   ar
    46     7     8    2
    47    38    39   ar
    48    39    40   ar
    49    47    42    1
    50    40    35   ar
    51    51    48    1
    52     7     1   ar
    53    14     9   ar
    54    28    15   am
    55    22    18   ar
    56    27    21    1
    57    33    34    1
    58    31    32    1
@<TRIPOS>MOLECULE
*****
 51 58 0 0 0
SMALL
GASTEIGER

@<TRIPOS>ATOM
      1 C         143.4385  143.1243  158.8124 C.ar    1  UNL1        0.1063
      2 C         143.7155  142.1977  157.6658 C.ar    1  UNL1        0.0210
      3 C         142.7422  142.0998  156.5286 C.ar    1  UNL1        0.0186
      4 C         141.4920  142.9285  156.5380 C.ar    1  UNL1        0.0784
      5 N         141.2150  143.8552  157.6847 N.ar    1  UNL1       -0.2911
      6 C         139.9647  144.6838  157.6940 C.3     1  UNL1        0.1336
      7 C         142.1883  143.9531  158.8218 C.ar    1  UNL1        0.2744
      8 O         141.9113  144.8797  159.9684 O.2     1  UNL1       -0.2656
      9 C         143.0193  141.1732  155.3820 C.ar    1  UNL1        0.0041
     10 C         143.6714  141.6954  154.1363 C.ar    1  UNL1        0.0206
     11 C         143.9484  140.7688  152.9897 C.ar    1  UNL1        0.1003
     12 N         143.5733  139.3198  153.0890 N.ar    1  UNL1       -0.2290
     13 C         142.9212  138.7976  154.3348 C.ar    1  UNL1        0.1360
     14 C         142.6442  139.7243  155.4813 C.ar    1  UNL1        0.0390
     15 N         142.5460  137.3487  154.4340 N.am    1  UNL1       -0.2373
     16 C         141.2375  136.8727  153.8763 C.3     1  UNL1        0.1244
     17 C         140.8624  135.4238  153.9756 C.3     1  UNL1        0.1277
     18 N         141.7959  134.4507  154.6327 N.ar    1  UNL1       -0.3256
     19 C         143.1045  134.9267  155.1904 C.ar    1  UNL1        0.1140
     20 C         143.8155  133.7437  155.7781 C.ar    1  UNL1        0.0187
     21 C         142.9463  132.5368  155.5835 C.ar    1  UNL1       -0.0089
     22 C         141.6981  132.9737  154.8756 C.ar    1  UNL1        0.0333
     23 C         140.8289  131.7668  154.6810 C.3     1  UNL1        0.0438
     24 C         141.5400  130.5840  155.2687 C.3     1  UNL1        0.0096
     25 C         140.3270  129.8278  154.8139 C.3     1  UNL1        0.0007
     26 C         141.9974  129.2431  155.7613 C.3     1  UNL1        0.0007
     27 C         142.8486  131.0599  155.8264 C.3     1  UNL1        0.0279
     28 C         143.4796  136.3756  155.0911 C.2     1  UNL1        0.2697
     29 O         144.7882  136.8514  155.6488 O.2     1  UNL1       -0.2679
     30 C         141.9920  139.2020  156.7271 C.3     1  UNL1        0.1664
     31 O         142.8340  138.6548  157.8415 O.3     1  UNL1       -0.3771
     32 H         143.2818  137.8481  157.5423 H       1  UNL1        0.2109
     33 N         144.4118  143.2222  159.9495 N.pl3   1  UNL1       -0.2942
     34 H         145.3679  143.3708  159.7677 H       1  UNL1        0.1537
     35 C         142.9612  142.8364  164.1918 C.ar    1  UNL1        0.0674
     36 C         142.7469  141.7133  163.2209 C.ar    1  UNL1        0.0190
     37 C         143.2304  141.8419  161.8068 C.ar    1  UNL1        0.0357
     38 C         143.9283  143.0937  161.3637 C.ar    1  UNL1        0.1324
     39 N         144.1426  144.2167  162.3346 N.ar    1  UNL1       -0.2278
     40 C         143.6590  144.0881  163.7488 C.ar    1  UNL1        0.1147
     41 C         140.0583  143.2472  164.8278 C.3     1  UNL1        0.0229
     42 C         141.0263  142.9132  165.9238 C.3     1  UNL1        0.0889
     43 C         140.5428  142.7846  167.3380 C.3     1  UNL1        0.0921
     44 N         141.5107  142.4506  168.4341 N.3     1  UNL1       -0.2668
     45 C         142.9621  142.2452  168.1162 C.3     1  UNL1        0.0939
     46 C         143.4456  142.3738  166.7021 C.3     1  UNL1        0.1081
     47 N         142.4777  142.7078  165.6059 N.pl3   1  UNL1       -0.3051
     48 C         141.0272  142.3220  169.8483 C.3     1  UNL1        0.1173
     49 C         141.5148  141.6104  171.0753 C.3     1  UNL1        0.1606
     50 O         140.3433  142.1401  171.8481 O.3     1  UNL1       -0.3507
     51 C         139.8557  142.8517  170.6210 C.3     1  UNL1        0.1606
@<TRIPOS>BOND
     1    42    41    1
     2    42    43    1
     3    43    44    1
     4    44    48    1
     5    48    49    1
     6    49    50    1
     7    50    51    1
     8    44    45    1
     9    45    46    1
    10    46    47    1
    11    47    35    1
    12    35    36   ar
    13    36    37   ar
    14    37    38   ar
    15    38    33    1
    16    33     1    1
    17     1     2   ar
    18     2     3   ar
    19     3     9    1
    20     9    10   ar
    21    10    11   ar
    22    11    12   ar
    23    12    13   ar
    24    13    15    1
    25    15    16    1
    26    16    17    1
    27    17    18    1
    28    18    19   ar
    29    19    20   ar
    30    20    21   ar
    31    21    22   ar
    32    22    23    1
    33    23    24    1
    34    24    25    1
    35    24    26    1
    36    24    27    1
    37    19    28    1
    38    28    29    2
    39    13    14   ar
    40    14    30    1
    41    30    31    1
    42     3     4   ar
    43     4     5   ar
    44     5     6    1
    45     5     7   ar
    46     7     8    2
    47    38    39   ar
    48    39    40   ar
    49    47    42    1
    50    40    35   ar
    51    51    48    1
    52     7     1   ar
    53    14     9   ar
    54    28    15   am
    55    22    18   ar
    56    27    21    1
    57    33    34    1
    58    31    32    1
@<TRIPOS>MOLECULE
*****
 51 58 0 0 0
SMALL
GASTEIGER

@<TRIPOS>ATOM
      1 C         138.4869  140.3345  154.6694 C.ar    1  UNL1        0.1063
      2 C         139.2041  141.3731  155.4799 C.ar    1  UNL1        0.0210
      3 C         138.4565  142.1713  156.5065 C.ar    1  UNL1        0.0186
      4 C         136.9919  141.9309  156.7227 C.ar    1  UNL1        0.0784
      5 N         136.2746  140.8922  155.9123 N.ar    1  UNL1       -0.2911
      6 C         134.8100  140.6518  156.1286 C.3     1  UNL1        0.1336
      7 C         137.0222  140.0940  154.8856 C.ar    1  UNL1        0.2744
      8 O         136.3050  139.0553  154.0752 O.2     1  UNL1       -0.2656
      9 C         139.1738  143.2100  157.3170 C.ar    1  UNL1        0.0041
     10 C         139.4822  144.5491  156.7159 C.ar    1  UNL1        0.0206
     11 C         140.1995  145.5878  157.5264 C.ar    1  UNL1        0.1003
     12 N         140.6082  145.2872  158.9379 N.ar    1  UNL1       -0.2290
     13 C         140.2998  143.9480  159.5390 C.ar    1  UNL1        0.1360
     14 C         139.5825  142.9094  158.7285 C.ar    1  UNL1        0.0390
     15 N         140.7085  143.6473  160.9506 N.am    1  UNL1       -0.2373
     16 C         142.1257  143.2618  161.2551 C.3     1  UNL1        0.1244
     17 C         142.5345  142.9611  162.6667 C.3     1  UNL1        0.1277
     18 N         141.5259  143.0461  163.7738 N.ar    1  UNL1       -0.3256
     19 C         140.1087  143.4317  163.4692 C.ar    1  UNL1        0.1140
     20 C         139.3414  143.4324  164.7582 C.ar    1  UNL1        0.0187
     21 C         140.2844  143.0473  165.8592 C.ar    1  UNL1       -0.0089
     22 C         141.6346  142.8085  165.2509 C.ar    1  UNL1        0.0333
     23 C         142.5776  142.4234  166.3519 C.3     1  UNL1        0.0438
     24 C         141.8103  142.4241  167.6408 C.3     1  UNL1        0.0096
     25 C         143.1245  142.0211  168.2410 C.3     1  UNL1        0.0007
     26 C         141.3177  142.3406  169.0551 C.3     1  UNL1        0.0007
     27 C         140.3930  142.8097  167.3363 C.3     1  UNL1        0.0279
     28 C         139.6999  143.7323  162.0577 C.2     1  UNL1        0.2697
     29 O         138.2827  144.1179  161.7532 O.2     1  UNL1       -0.2679
     30 C         139.2741  141.5701  159.3296 C.3     1  UNL1        0.1664
     31 O         138.0674  141.4007  160.2045 O.3     1  UNL1       -0.3771
     32 H         138.1805  141.9205  161.0156 H       1  UNL1        0.2109
     33 N         139.2345  139.5363  153.6428 N.pl3   1  UNL1       -0.2942
     34 H         139.2810  139.8524  152.7116 H       1  UNL1        0.1537
     35 C         141.2647  135.6965  154.8195 C.ar    1  UNL1        0.0674
     36 C         140.5984  136.5430  155.8633 C.ar    1  UNL1        0.0190
     37 C         139.9217  137.8229  155.4711 C.ar    1  UNL1        0.0357
     38 C         139.9113  138.2563  154.0350 C.ar    1  UNL1        0.1324
     39 N         140.5775  137.4098  152.9913 N.ar    1  UNL1       -0.2278
     40 C         141.2543  136.1298  153.3835 C.ar    1  UNL1        0.1147
     41 C         144.1430  135.7195  155.6653 C.3     1  UNL1        0.0229
     42 C         143.3805  134.4281  155.6346 C.3     1  UNL1        0.0889
     43 C         144.0572  133.1481  156.0269 C.3     1  UNL1        0.0921
     44 N         143.2949  131.8568  155.9963 N.3     1  UNL1       -0.2668
     45 C         141.8557  131.8452  155.5734 C.3     1  UNL1        0.0939
     46 C         141.1790  133.1251  155.1812 C.3     1  UNL1        0.1081
     47 N         141.9414  134.4166  155.2118 N.pl3   1  UNL1       -0.3051
     48 C         143.9715  130.5768  156.3885 C.3     1  UNL1        0.1173
     49 C         144.7061  129.4963  155.6518 C.3     1  UNL1        0.1606
     50 O         144.9285  128.7667  156.9434 O.3     1  UNL1       -0.3507
     51 C         144.1939  129.8472  157.6802 C.3     1  UNL1        0.1606
@<TRIPOS>BOND
     1    42    41    1
     2    42    43    1
     3    43    44    1
     4    44    48    1
     5    48    49    1
     6    49    50    1
     7    50    51    1
     8    44    45    1
     9    45    46    1
    10    46    47    1
    11    47    35    1
    12    35    36   ar
    13    36    37   ar
    14    37    38   ar
    15    38    33    1
    16    33     1    1
    17     1     2   ar
    18     2     3   ar
    19     3     9    1
    20     9    10   ar
    21    10    11   ar
    22    11    12   ar
    23    12    13   ar
    24    13    15    1
    25    15    16    1
    26    16    17    1
    27    17    18    1
    28    18    19   ar
    29    19    20   ar
    30    20    21   ar
    31    21    22   ar
    32    22    23    1
    33    23    24    1
    34    24    25    1
    35    24    26    1
    36    24    27    1
    37    19    28    1
    38    28    29    2
    39    13    14   ar
    40    14    30    1
    41    30    31    1
    42     3     4   ar
    43     4     5   ar
    44     5     6    1
    45     5     7   ar
    46     7     8    2
    47    38    39   ar
    48    39    40   ar
    49    47    42    1
    50    40    35   ar
    51    51    48    1
    52     7     1   ar
    53    14     9   ar
    54    28    15   am
    55    22    18   ar
    56    27    21    1
    57    33    34    1
    58    31    32    1
@<TRIPOS>MOLECULE
*****
 51 58 0 0 0
SMALL
GASTEIGER

@<TRIPOS>ATOM
      1 C         138.8781  140.9632  158.5579 C.ar    1  UNL1        0.1063
      2 C         139.3865  139.9729  157.5526 C.ar    1  UNL1        0.0210
      3 C         140.3787  140.4020  156.5126 C.ar    1  UNL1        0.0186
      4 C         140.8624  141.8214  156.4780 C.ar    1  UNL1        0.0784
      5 N         140.3539  142.8118  157.4834 N.ar    1  UNL1       -0.2911
      6 C         140.8377  144.2312  157.4487 C.3     1  UNL1        0.1336
      7 C         139.3618  142.3827  158.5233 C.ar    1  UNL1        0.2744
      8 O         138.8533  143.3730  159.5287 O.2     1  UNL1       -0.2656
      9 C         140.8871  139.4116  155.5073 C.ar    1  UNL1        0.0041
     10 C         141.1070  139.8327  154.0846 C.ar    1  UNL1        0.0206
     11 C         141.6155  138.8423  153.0792 C.ar    1  UNL1        0.1003
     12 N         141.9039  137.4308  153.4967 N.ar    1  UNL1       -0.2290
     13 C         141.6840  137.0097  154.9195 C.ar    1  UNL1        0.1360
     14 C         141.1756  138.0001  155.9248 C.ar    1  UNL1        0.0390
     15 N         141.9725  135.5981  155.3370 N.am    1  UNL1       -0.2373
     16 C         141.0547  134.4890  154.9160 C.3     1  UNL1        0.1244
     17 C         141.3432  133.0774  155.3335 C.3     1  UNL1        0.1277
     18 N         142.5496  132.7750  156.1721 N.ar    1  UNL1       -0.3256
     19 C         143.4674  133.8843  156.5931 C.ar    1  UNL1        0.1140
     20 C         144.5719  133.2859  157.4130 C.ar    1  UNL1        0.0187
     21 C         144.3366  131.8069  157.4986 C.ar    1  UNL1       -0.0089
     22 C         143.0868  131.4912  156.7317 C.ar    1  UNL1        0.0333
     23 C         142.8515  130.0123  156.8173 C.3     1  UNL1        0.0438
     24 C         143.9560  129.4139  157.6372 C.3     1  UNL1        0.0096
     25 C         143.2376  128.1233  157.3761 C.3     1  UNL1        0.0007
     26 C         144.9102  128.5458  158.4024 C.3     1  UNL1        0.0007
     27 C         144.8738  130.5231  158.0582 C.3     1  UNL1        0.0279
     28 C         143.1789  135.2958  156.1756 C.2     1  UNL1        0.2697
     29 O         144.0967  136.4049  156.5967 O.2     1  UNL1       -0.2679
     30 C         140.9557  137.5790  157.3475 C.3     1  UNL1        0.1664
     31 O         142.0451  137.7652  158.3618 O.3     1  UNL1       -0.3771
     32 H         142.7965  137.1942  158.1378 H       1  UNL1        0.2109
     33 N         137.8859  140.5341  159.5978 N.pl3   1  UNL1       -0.2942
     34 H         137.0061  140.1865  159.3251 H       1  UNL1        0.1537
     35 C         138.9311  140.8355  163.9644 C.ar    1  UNL1        0.0674
     36 C         139.8504  140.1178  163.0210 C.ar    1  UNL1        0.0190
     37 C         139.5020  140.0174  161.5655 C.ar    1  UNL1        0.0357
     38 C         138.2343  140.6346  161.0534 C.ar    1  UNL1        0.1324
     39 N         137.3151  141.3521  161.9968 N.ar    1  UNL1       -0.2278
     40 C         137.6635  141.4526  163.4524 C.ar    1  UNL1        0.1147
     41 C         138.2729  138.5751  165.8239 C.3     1  UNL1        0.0229
     42 C         138.9504  139.8058  166.3496 C.3     1  UNL1        0.0889
     43 C         139.2989  139.9063  167.8052 C.3     1  UNL1        0.0921
     44 N         139.9764  141.1368  168.3309 N.3     1  UNL1       -0.2668
     45 C         140.3056  142.2670  167.4012 C.3     1  UNL1        0.0939
     46 C         139.9571  142.1666  165.9457 C.3     1  UNL1        0.1081
     47 N         139.2796  140.9359  165.4199 N.pl3   1  UNL1       -0.3051
     48 C         140.3249  141.2374  169.7865 C.3     1  UNL1        0.1173
     49 C         140.7475  140.2630  170.8457 C.3     1  UNL1        0.1606
     50 O         140.8176  141.3797  171.8449 O.3     1  UNL1       -0.3507
     51 C         140.3950  142.3540  170.7857 C.3     1  UNL1        0.1606
@<TRIPOS>BOND
     1    42    41    1
     2    42    43    1
     3    43    44    1
     4    44    48    1
     5    48    49    1
     6    49    50    1
     7    50    51    1
     8    44    45    1
     9    45    46    1
    10    46    47    1
    11    47    35    1
    12    35    36   ar
    13    36    37   ar
    14    37    38   ar
    15    38    33    1
    16    33     1    1
    17     1     2   ar
    18     2     3   ar
    19     3     9    1
    20     9    10   ar
    21    10    11   ar
    22    11    12   ar
    23    12    13   ar
    24    13    15    1
    25    15    16    1
    26    16    17    1
    27    17    18    1
    28    18    19   ar
    29    19    20   ar
    30    20    21   ar
    31    21    22   ar
    32    22    23    1
    33    23    24    1
    34    24    25    1
    35    24    26    1
    36    24    27    1
    37    19    28    1
    38    28    29    2
    39    13    14   ar
    40    14    30    1
    41    30    31    1
    42     3     4   ar
    43     4     5   ar
    44     5     6    1
    45     5     7   ar
    46     7     8    2
    47    38    39   ar
    48    39    40   ar
    49    47    42    1
    50    40    35   ar
    51    51    48    1
    52     7     1   ar
    53    14     9   ar
    54    28    15   am
    55    22    18   ar
    56    27    21    1
    57    33    34    1
    58    31    32    1
@<TRIPOS>MOLECULE
*****
 51 58 0 0 0
SMALL
GASTEIGER

@<TRIPOS>ATOM
      1 C         139.1565  142.0403  155.6210 C.ar    1  UNL1        0.1063
      2 C         140.2062  141.9248  156.6863 C.ar    1  UNL1        0.0210
      3 C         140.7103  143.1561  157.3790 C.ar    1  UNL1        0.0186
      4 C         140.1648  144.5027  157.0065 C.ar    1  UNL1        0.0784
      5 N         139.1151  144.6182  155.9411 N.ar    1  UNL1       -0.2911
      6 C         138.5697  145.9649  155.5686 C.3     1  UNL1        0.1336
      7 C         138.6110  143.3870  155.2484 C.ar    1  UNL1        0.2744
      8 O         137.5614  143.5024  154.1830 O.2     1  UNL1       -0.2656
      9 C         141.7600  143.0405  158.4444 C.ar    1  UNL1        0.0041
     10 C         143.2121  143.0325  158.0688 C.ar    1  UNL1        0.0206
     11 C         144.2618  142.9169  159.1342 C.ar    1  UNL1        0.1003
     12 N         143.8591  142.8095  160.5751 N.ar    1  UNL1       -0.2290
     13 C         142.4069  142.8176  160.9507 C.ar    1  UNL1        0.1360
     14 C         141.3574  142.9331  159.8853 C.ar    1  UNL1        0.0390
     15 N         142.0043  142.7101  162.3916 N.am    1  UNL1       -0.2373
     16 C         142.0274  143.9261  163.2696 C.3     1  UNL1        0.1244
     17 C         141.6247  143.8187  164.7105 C.3     1  UNL1        0.1277
     18 N         141.1990  142.4951  165.2736 N.ar    1  UNL1       -0.3256
     19 C         141.1760  141.2791  164.3956 C.ar    1  UNL1        0.1140
     20 C         140.7140  140.1175  165.2248 C.ar    1  UNL1        0.0187
     21 C         140.4515  140.6157  166.6151 C.ar    1  UNL1       -0.0089
     22 C         140.7513  142.0852  166.6452 C.ar    1  UNL1        0.0333
     23 C         140.4889  142.5834  168.0355 C.3     1  UNL1        0.0438
     24 C         140.0269  141.4218  168.8646 C.3     1  UNL1        0.0096
     25 C         139.9501  142.4395  169.9639 C.3     1  UNL1        0.0007
     26 C         139.5489  140.4731  169.9235 C.3     1  UNL1        0.0007
     27 C         140.0038  140.2058  167.9867 C.3     1  UNL1        0.0279
     28 C         141.5786  141.3865  162.9547 C.2     1  UNL1        0.2697
     29 O         141.5555  140.1706  162.0768 O.2     1  UNL1       -0.2679
     30 C         139.9051  142.9412  160.2609 C.3     1  UNL1        0.1664
     31 O         139.2645  144.2056  160.7519 O.3     1  UNL1       -0.3771
     32 H         139.6540  144.4555  161.6044 H       1  UNL1        0.2109
     33 N         138.6524  140.8090  154.9283 N.pl3   1  UNL1       -0.2942
     34 H         137.8627  140.8620  154.3428 H       1  UNL1        0.1537
     35 C         140.7502  136.8730  155.5260 C.ar    1  UNL1        0.0674
     36 C         141.2171  137.8171  154.4578 C.ar    1  UNL1        0.0190
     37 C         140.5178  139.1290  154.2586 C.ar    1  UNL1        0.0357
     38 C         139.3517  139.4970  155.1275 C.ar    1  UNL1        0.1324
     39 N         138.8849  138.5529  156.1956 N.ar    1  UNL1       -0.2278
     40 C         139.5842  137.2409  156.3948 C.ar    1  UNL1        0.1147
     41 C         142.9556  136.6402  157.5465 C.3     1  UNL1        0.0229
     42 C         142.5521  135.4447  156.7354 C.3     1  UNL1        0.0889
     43 C         143.2514  134.1326  156.9346 C.3     1  UNL1        0.0921
     44 N         142.8480  132.9370  156.1236 N.3     1  UNL1       -0.2668
     45 C         141.7454  133.0534  155.1134 C.3     1  UNL1        0.0939
     46 C         141.0461  134.3654  154.9142 C.3     1  UNL1        0.1081
     47 N         141.4495  135.5610  155.7252 N.pl3   1  UNL1       -0.3051
     48 C         143.5473  131.6250  156.3228 C.3     1  UNL1        0.1173
     49 C         144.8527  131.0396  155.8721 C.3     1  UNL1        0.1606
     50 O         144.5361  129.7694  156.6045 O.3     1  UNL1       -0.3507
     51 C         143.2306  130.3548  157.0552 C.3     1  UNL1        0.1606
@<TRIPOS>BOND
     1    42    41    1
     2    42    43    1
     3    43    44    1
     4    44    48    1
     5    48    49    1
     6    49    50    1
     7    50    51    1
     8    44    45    1
     9    45    46    1
    10    46    47    1
    11    47    35    1
    12    35    36   ar
    13    36    37   ar
    14    37    38   ar
    15    38    33    1
    16    33     1    1
    17     1     2   ar
    18     2     3   ar
    19     3     9    1
    20     9    10   ar
    21    10    11   ar
    22    11    12   ar
    23    12    13   ar
    24    13    15    1
    25    15    16    1
    26    16    17    1
    27    17    18    1
    28    18    19   ar
    29    19    20   ar
    30    20    21   ar
    31    21    22   ar
    32    22    23    1
    33    23    24    1
    34    24    25    1
    35    24    26    1
    36    24    27    1
    37    19    28    1
    38    28    29    2
    39    13    14   ar
    40    14    30    1
    41    30    31    1
    42     3     4   ar
    43     4     5   ar
    44     5     6    1
    45     5     7   ar
    46     7     8    2
    47    38    39   ar
    48    39    40   ar
    49    47    42    1
    50    40    35   ar
    51    51    48    1
    52     7     1   ar
    53    14     9   ar
    54    28    15   am
    55    22    18   ar
    56    27    21    1
    57    33    34    1
    58    31    32    1
@<TRIPOS>MOLECULE
*****
 51 58 0 0 0
SMALL
GASTEIGER

@<TRIPOS>ATOM
      1 C         139.2635  143.1187  158.6219 C.ar    1  UNL1        0.1063
      2 C         139.5096  142.1442  157.5085 C.ar    1  UNL1        0.0210
      3 C         140.6086  142.3974  156.5194 C.ar    1  UNL1        0.0186
      4 C         141.4613  143.6251  156.6438 C.ar    1  UNL1        0.0784
      5 N         141.2151  144.5997  157.7572 N.ar    1  UNL1       -0.2911
      6 C         142.0679  145.8273  157.8815 C.3     1  UNL1        0.1336
      7 C         140.1162  144.3464  158.7462 C.ar    1  UNL1        0.2744
      8 O         139.8700  145.3210  159.8596 O.2     1  UNL1       -0.2656
      9 C         140.8547  141.4228  155.4060 C.ar    1  UNL1        0.0041
     10 C         140.5766  141.8198  153.9866 C.ar    1  UNL1        0.0206
     11 C         140.8227  140.8452  152.8731 C.ar    1  UNL1        0.1003
     12 N         141.3470  139.4736  153.1793 N.ar    1  UNL1       -0.2290
     13 C         141.6251  139.0766  154.5988 C.ar    1  UNL1        0.1360
     14 C         141.3790  140.0512  155.7122 C.ar    1  UNL1        0.0390
     15 N         142.1494  137.7049  154.9050 N.am    1  UNL1       -0.2373
     16 C         143.5908  137.5184  155.2759 C.3     1  UNL1        0.1244
     17 C         144.1150  136.1468  155.5821 C.3     1  UNL1        0.1277
     18 N         143.1979  134.9616  155.5174 N.ar    1  UNL1       -0.3256
     19 C         141.7565  135.1481  155.1464 C.ar    1  UNL1        0.1140
     20 C         141.0953  133.8017  155.1644 C.ar    1  UNL1        0.0187
     21 C         142.1281  132.7832  155.5464 C.ar    1  UNL1       -0.0089
     22 C         143.4276  133.5000  155.7646 C.ar    1  UNL1        0.0333
     23 C         144.4604  132.4815  156.1466 C.3     1  UNL1        0.0438
     24 C         143.7992  131.1352  156.1645 C.3     1  UNL1        0.0096
     25 C         145.1619  130.6459  156.5563 C.3     1  UNL1        0.0007
     26 C         143.4230  129.6867  156.2644 C.3     1  UNL1        0.0007
     27 C         142.3578  131.3217  155.7936 C.3     1  UNL1        0.0279
     28 C         141.2322  136.5198  154.8402 C.2     1  UNL1        0.2697
     29 O         139.7909  136.7062  154.4693 O.2     1  UNL1       -0.2679
     30 C         141.6571  139.6542  157.1317 C.3     1  UNL1        0.1664
     31 O         142.9464  140.0569  157.7843 O.3     1  UNL1       -0.3771
     32 H         143.6856  139.6101  157.3429 H       1  UNL1        0.2109
     33 N         138.1645  142.8655  159.6109 N.pl3   1  UNL1       -0.2942
     34 H         137.2264  142.8555  159.3125 H       1  UNL1        0.1537
     35 C         139.1562  142.1513  163.9418 C.ar    1  UNL1        0.0674
     36 C         140.0148  141.5528  162.8673 C.ar    1  UNL1        0.0190
     37 C         139.6843  141.7908  161.4237 C.ar    1  UNL1        0.0357
     38 C         138.4951  142.6274  161.0546 C.ar    1  UNL1        0.1324
     39 N         137.6366  143.2259  162.1291 N.ar    1  UNL1       -0.2278
     40 C         137.9671  142.9878  163.5728 C.ar    1  UNL1        0.1147
     41 C         138.3942  139.5600  165.2476 C.3     1  UNL1        0.0229
     42 C         139.1058  140.6176  166.0383 C.3     1  UNL1        0.0889
     43 C         139.4364  140.3796  167.4820 C.3     1  UNL1        0.0921
     44 N         140.1479  141.4370  168.2727 N.3     1  UNL1       -0.2668
     45 C         140.5289  142.7326  167.6198 C.3     1  UNL1        0.0939
     46 C         140.1983  142.9707  166.1762 C.3     1  UNL1        0.1081
     47 N         139.4868  141.9132  165.3854 N.pl3   1  UNL1       -0.3051
     48 C         140.4785  141.1990  169.7163 C.3     1  UNL1        0.1173
     49 C         140.1587  140.1263  170.7148 C.3     1  UNL1        0.1606
     50 O         140.9461  140.8625  171.7579 O.3     1  UNL1       -0.3507
     51 C         141.2659  141.9352  170.7595 C.3     1  UNL1        0.1606
@<TRIPOS>BOND
     1    42    41    1
     2    42    43    1
     3    43    44    1
     4    44    48    1
     5    48    49    1
     6    49    50    1
     7    50    51    1
     8    44    45    1
     9    45    46    1
    10    46    47    1
    11    47    35    1
    12    35    36   ar
    13    36    37   ar
    14    37    38   ar
    15    38    33    1
    16    33     1    1
    17     1     2   ar
    18     2     3   ar
    19     3     9    1
    20     9    10   ar
    21    10    11   ar
    22    11    12   ar
    23    12    13   ar
    24    13    15    1
    25    15    16    1
    26    16    17    1
    27    17    18    1
    28    18    19   ar
    29    19    20   ar
    30    20    21   ar
    31    21    22   ar
    32    22    23    1
    33    23    24    1
    34    24    25    1
    35    24    26    1
    36    24    27    1
    37    19    28    1
    38    28    29    2
    39    13    14   ar
    40    14    30    1
    41    30    31    1
    42     3     4   ar
    43     4     5   ar
    44     5     6    1
    45     5     7   ar
    46     7     8    2
    47    38    39   ar
    48    39    40   ar
    49    47    42    1
    50    40    35   ar
    51    51    48    1
    52     7     1   ar
    53    14     9   ar
    54    28    15   am
    55    22    18   ar
    56    27    21    1
    57    33    34    1
    58    31    32    1
@<TRIPOS>MOLECULE
*****
 51 58 0 0 0
SMALL
GASTEIGER

@<TRIPOS>ATOM
      1 C         138.9463  140.5983  158.6459 C.ar    1  UNL1        0.1063
      2 C         140.0688  139.7303  158.1597 C.ar    1  UNL1        0.0210
      3 C         141.0152  140.2432  157.1151 C.ar    1  UNL1        0.0186
      4 C         140.8391  141.6241  156.5567 C.ar    1  UNL1        0.0784
      5 N         139.7165  142.4922  157.0428 N.ar    1  UNL1       -0.2911
      6 C         139.5405  143.8732  156.4844 C.3     1  UNL1        0.1336
      7 C         138.7701  141.9793  158.0874 C.ar    1  UNL1        0.2744
      8 O         137.6476  142.8473  158.5736 O.2     1  UNL1       -0.2656
      9 C         142.1378  139.3751  156.6290 C.ar    1  UNL1        0.0041
     10 C         143.4021  140.0000  156.1182 C.ar    1  UNL1        0.0206
     11 C         144.5247  139.1319  155.6321 C.ar    1  UNL1        0.1003
     12 N         144.3828  137.6388  155.6567 N.ar    1  UNL1       -0.2290
     13 C         143.1185  137.0139  156.1675 C.ar    1  UNL1        0.1360
     14 C         141.9960  137.8820  156.6536 C.ar    1  UNL1        0.0390
     15 N         142.9766  135.5209  156.1922 N.am    1  UNL1       -0.2373
     16 C         143.6702  134.7189  157.2532 C.3     1  UNL1        0.1244
     17 C         143.5284  133.2259  157.2778 C.3     1  UNL1        0.1277
     18 N         142.6929  132.5347  156.2414 N.ar    1  UNL1       -0.3256
     19 C         141.9992  133.3366  155.1804 C.ar    1  UNL1        0.1140
     20 C         141.2481  132.3850  154.2970 C.ar    1  UNL1        0.0187
     21 C         141.4776  130.9950  154.8120 C.ar    1  UNL1       -0.0089
     22 C         142.3705  131.0875  156.0138 C.ar    1  UNL1        0.0333
     23 C         142.6000  129.6975  156.5289 C.3     1  UNL1        0.0438
     24 C         141.8490  128.7460  155.6454 C.3     1  UNL1        0.0096
     25 C         142.4102  127.6995  156.5618 C.3     1  UNL1        0.0007
     26 C         141.2153  127.5757  154.9536 C.3     1  UNL1        0.0007
     27 C         141.1553  129.5479  154.5844 C.3     1  UNL1        0.0279
     28 C         142.1410  134.8297  155.1557 C.2     1  UNL1        0.2697
     29 O         141.4474  135.6315  154.0948 O.2     1  UNL1       -0.2679
     30 C         140.7316  137.2571  157.1644 C.3     1  UNL1        0.1664
     31 O         139.6461  136.8687  156.2047 O.3     1  UNL1       -0.3771
     32 H         139.2781  137.6661  155.7928 H       1  UNL1        0.2109
     33 N         137.9999  140.0853  159.6904 N.pl3   1  UNL1       -0.2942
     34 H         137.1658  139.6368  159.4214 H       1  UNL1        0.1537
     35 C         138.9735  140.5964  164.0541 C.ar    1  UNL1        0.0674
     36 C         139.8892  139.8035  163.1692 C.ar    1  UNL1        0.0190
     37 C         139.5647  139.6332  161.7147 C.ar    1  UNL1        0.0357
     38 C         138.3244  140.2557  161.1450 C.ar    1  UNL1        0.1324
     39 N         137.4089  141.0485  162.0299 N.ar    1  UNL1       -0.2278
     40 C         137.7334  141.2189  163.4845 C.ar    1  UNL1        0.1147
     41 C         138.1659  138.4869  166.0283 C.3     1  UNL1        0.0229
     42 C         138.8942  139.7120  166.4957 C.3     1  UNL1        0.0889
     43 C         139.2188  139.8824  167.9502 C.3     1  UNL1        0.0921
     44 N         139.9472  141.1075  168.4176 N.3     1  UNL1       -0.2668
     45 C         140.3511  142.1623  167.4305 C.3     1  UNL1        0.0939
     46 C         140.0265  141.9919  165.9760 C.3     1  UNL1        0.1081
     47 N         139.2981  140.7668  165.5086 N.pl3   1  UNL1       -0.3051
     48 C         140.2718  141.2779  169.8722 C.3     1  UNL1        0.1173
     49 C         140.6930  140.3583  170.9798 C.3     1  UNL1        0.1606
     50 O         140.7308  141.5190  171.9292 O.3     1  UNL1       -0.3507
     51 C         140.3097  142.4387  170.8216 C.3     1  UNL1        0.1606
@<TRIPOS>BOND
     1    42    41    1
     2    42    43    1
     3    43    44    1
     4    44    48    1
     5    48    49    1
     6    49    50    1
     7    50    51    1
     8    44    45    1
     9    45    46    1
    10    46    47    1
    11    47    35    1
    12    35    36   ar
    13    36    37   ar
    14    37    38   ar
    15    38    33    1
    16    33     1    1
    17     1     2   ar
    18     2     3   ar
    19     3     9    1
    20     9    10   ar
    21    10    11   ar
    22    11    12   ar
    23    12    13   ar
    24    13    15    1
    25    15    16    1
    26    16    17    1
    27    17    18    1
    28    18    19   ar
    29    19    20   ar
    30    20    21   ar
    31    21    22   ar
    32    22    23    1
    33    23    24    1
    34    24    25    1
    35    24    26    1
    36    24    27    1
    37    19    28    1
    38    28    29    2
    39    13    14   ar
    40    14    30    1
    41    30    31    1
    42     3     4   ar
    43     4     5   ar
    44     5     6    1
    45     5     7   ar
    46     7     8    2
    47    38    39   ar
    48    39    40   ar
    49    47    42    1
    50    40    35   ar
    51    51    48    1
    52     7     1   ar
    53    14     9   ar
    54    28    15   am
    55    22    18   ar
    56    27    21    1
    57    33    34    1
    58    31    32    1
@<TRIPOS>MOLECULE
*****
 51 58 0 0 0
SMALL
GASTEIGER

@<TRIPOS>ATOM
      1 C         139.8529  140.9372  155.7743 C.ar    1  UNL1        0.1063
      2 C         140.3251  141.7690  156.9298 C.ar    1  UNL1        0.0210
      3 C         139.3282  142.4371  157.8298 C.ar    1  UNL1        0.0186
      4 C         137.8593  142.2733  157.5744 C.ar    1  UNL1        0.0784
      5 N         137.3871  141.4415  156.4189 N.ar    1  UNL1       -0.2911
      6 C         135.9181  141.2778  156.1636 C.3     1  UNL1        0.1336
      7 C         138.3839  140.7734  155.5189 C.ar    1  UNL1        0.2744
      8 O         137.9117  139.9416  154.3634 O.2     1  UNL1       -0.2656
      9 C         139.8005  143.2689  158.9853 C.ar    1  UNL1        0.0041
     10 C         140.1997  144.6981  158.7669 C.ar    1  UNL1        0.0206
     11 C         140.6720  145.5300  159.9224 C.ar    1  UNL1        0.1003
     12 N         140.7450  144.9324  161.2962 N.ar    1  UNL1       -0.2290
     13 C         140.3458  143.5031  161.5147 C.ar    1  UNL1        0.1360
     14 C         139.8735  142.6714  160.3592 C.ar    1  UNL1        0.0390
     15 N         140.4188  142.9056  162.8885 N.am    1  UNL1       -0.2373
     16 C         139.2751  143.0785  163.8435 C.3     1  UNL1        0.1244
     17 C         139.3481  142.4810  165.2174 C.3     1  UNL1        0.1277
     18 N         140.5649  141.7104  165.6364 N.ar    1  UNL1       -0.3256
     19 C         141.7087  141.5374  164.6814 C.ar    1  UNL1        0.1140
     20 C         142.7704  140.7327  165.3708 C.ar    1  UNL1        0.0187
     21 C         142.2828  140.4084  166.7517 C.ar    1  UNL1       -0.0089
     22 C         140.9198  141.0126  166.9159 C.ar    1  UNL1        0.0333
     23 C         140.4321  140.6883  168.2968 C.3     1  UNL1        0.0438
     24 C         141.4938  139.8836  168.9862 C.3     1  UNL1        0.0096
     25 C         140.5299  139.8886  170.1354 C.3     1  UNL1        0.0007
     26 C         142.3540  139.0800  169.9158 C.3     1  UNL1        0.0007
     27 C         142.6376  139.7106  168.0313 C.3     1  UNL1        0.0279
     28 C         141.6357  142.1350  163.3075 C.2     1  UNL1        0.2697
     29 O         142.7794  141.9619  162.3526 O.2     1  UNL1       -0.2679
     30 C         139.4743  141.2421  160.5776 C.3     1  UNL1        0.1664
     31 O         138.1047  140.9167  161.0959 O.3     1  UNL1       -0.3771
     32 H         138.0142  141.2508  162.0020 H       1  UNL1        0.2109
     33 N         140.8497  140.2691  154.8743 N.pl3   1  UNL1       -0.2942
     34 H         141.1898  140.7412  154.0802 H       1  UNL1        0.1537
     35 C         142.2852  136.1068  155.8044 C.ar    1  UNL1        0.0674
     36 C         140.9816  136.5933  156.3648 C.ar    1  UNL1        0.0190
     37 C         140.5031  137.9807  156.0548 C.ar    1  UNL1        0.0357
     38 C         141.3282  138.8817  155.1843 C.ar    1  UNL1        0.1324
     39 N         142.6317  138.3952  154.6240 N.ar    1  UNL1       -0.2278
     40 C         143.1103  137.0077  154.9340 C.ar    1  UNL1        0.1147
     41 C         141.4542  133.8094  154.0634 C.3     1  UNL1        0.0229
     42 C         142.3482  133.5708  155.2439 C.3     1  UNL1        0.0889
     43 C         142.8267  132.1833  155.5540 C.3     1  UNL1        0.0921
     44 N         143.7207  131.9446  156.7345 N.3     1  UNL1       -0.2668
     45 C         144.1362  133.0933  157.6051 C.3     1  UNL1        0.0939
     46 C         143.6577  134.4807  157.2950 C.3     1  UNL1        0.1081
     47 N         142.7637  134.7194  156.1145 N.pl3   1  UNL1       -0.3051
     48 C         144.1992  130.5572  157.0446 C.3     1  UNL1        0.1173
     49 C         144.4569  129.7802  158.3016 C.3     1  UNL1        0.1606
     50 O         144.8760  128.5951  157.4830 O.3     1  UNL1       -0.3507
     51 C         144.6183  129.3720  156.2261 C.3     1  UNL1        0.1606
@<TRIPOS>BOND
     1    42    41    1
     2    42    43    1
     3    43    44    1
     4    44    48    1
     5    48    49    1
     6    49    50    1
     7    50    51    1
     8    44    45    1
     9    45    46    1
    10    46    47    1
    11    47    35    1
    12    35    36   ar
    13    36    37   ar
    14    37    38   ar
    15    38    33    1
    16    33     1    1
    17     1     2   ar
    18     2     3   ar
    19     3     9    1
    20     9    10   ar
    21    10    11   ar
    22    11    12   ar
    23    12    13   ar
    24    13    15    1
    25    15    16    1
    26    16    17    1
    27    17    18    1
    28    18    19   ar
    29    19    20   ar
    30    20    21   ar
    31    21    22   ar
    32    22    23    1
    33    23    24    1
    34    24    25    1
    35    24    26    1
    36    24    27    1
    37    19    28    1
    38    28    29    2
    39    13    14   ar
    40    14    30    1
    41    30    31    1
    42     3     4   ar
    43     4     5   ar
    44     5     6    1
    45     5     7   ar
    46     7     8    2
    47    38    39   ar
    48    39    40   ar
    49    47    42    1
    50    40    35   ar
    51    51    48    1
    52     7     1   ar
    53    14     9   ar
    54    28    15   am
    55    22    18   ar
    56    27    21    1
    57    33    34    1
    58    31    32    1
@<TRIPOS>MOLECULE
*****
 51 58 0 0 0
SMALL
GASTEIGER

@<TRIPOS>ATOM
      1 C         142.4006  139.5863  166.1310 C.ar    1  UNL1        0.1063
      2 C         141.6639  140.6570  165.3820 C.ar    1  UNL1        0.0210
      3 C         141.0487  141.8049  166.1260 C.ar    1  UNL1        0.0186
      4 C         141.1701  141.8822  167.6190 C.ar    1  UNL1        0.0784
      5 N         141.9067  140.8116  168.3681 N.ar    1  UNL1       -0.2911
      6 C         142.0281  140.8890  169.8612 C.3     1  UNL1        0.1336
      7 C         142.5220  139.6636  167.6241 C.ar    1  UNL1        0.2744
      8 O         143.2587  138.5930  168.3731 O.2     1  UNL1       -0.2656
      9 C         140.3120  142.8756  165.3769 C.ar    1  UNL1        0.0041
     10 C         139.4305  143.8375  166.1168 C.ar    1  UNL1        0.0206
     11 C         138.6938  144.9082  165.3677 C.ar    1  UNL1        0.1003
     12 N         138.8388  145.0168  163.8787 N.ar    1  UNL1       -0.2290
     13 C         139.7203  144.0547  163.1388 C.ar    1  UNL1        0.1360
     14 C         140.4569  142.9842  163.8879 C.ar    1  UNL1        0.0390
     15 N         139.8652  144.1633  161.6498 N.am    1  UNL1       -0.2373
     16 C         140.7656  145.2068  161.0578 C.3     1  UNL1        0.1244
     17 C         140.9105  145.3153  159.5688 C.3     1  UNL1        0.1277
     18 N         140.1550  144.3804  158.6716 N.ar    1  UNL1       -0.3256
     19 C         139.2545  143.3368  159.2635 C.ar    1  UNL1        0.1140
     20 C         138.6410  142.5605  158.1361 C.ar    1  UNL1        0.0187
     21 C         139.1622  143.1243  156.8475 C.ar    1  UNL1       -0.0089
     22 C         140.0979  144.2490  157.1785 C.ar    1  UNL1        0.0333
     23 C         140.6192  144.8128  155.8899 C.3     1  UNL1        0.0438
     24 C         140.0056  144.0365  154.7626 C.3     1  UNL1        0.0096
     25 C         140.8130  144.9580  153.8972 C.3     1  UNL1        0.0007
     26 C         139.5609  143.4529  153.4543 C.3     1  UNL1        0.0007
     27 C         139.1052  142.9930  155.3544 C.3     1  UNL1        0.0279
     28 C         139.1096  143.2283  160.7526 C.2     1  UNL1        0.2697
     29 O         138.2093  142.1848  161.3444 O.2     1  UNL1       -0.2679
     30 C         141.3384  142.0221  163.1480 C.3     1  UNL1        0.1664
     31 O         140.7376  140.8351  162.4550 O.3     1  UNL1       -0.3771
     32 H         140.3583  140.2334  163.1145 H       1  UNL1        0.2109
     33 N         143.0158  138.4384  165.3869 N.pl3   1  UNL1       -0.2942
     34 H         143.4788  137.7233  165.8805 H       1  UNL1        0.1537
     35 C         142.7457  138.2632  160.8984 C.ar    1  UNL1        0.0674
     36 C         143.9658  138.8387  161.5544 C.ar    1  UNL1        0.0190
     37 C         144.0558  138.8971  163.0506 C.ar    1  UNL1        0.0357
     38 C         142.9258  138.3800  163.8907 C.ar    1  UNL1        0.1324
     39 N         141.7058  137.8045  163.2347 N.ar    1  UNL1       -0.2278
     40 C         141.6158  137.7461  161.7385 C.ar    1  UNL1        0.1147
     41 C         142.0947  140.7408  159.3369 C.3     1  UNL1        0.0229
     42 C         142.3302  139.4436  158.6216 C.3     1  UNL1        0.0889
     43 C         142.2402  139.3852  157.1254 C.3     1  UNL1        0.0921
     44 N         142.4757  138.0881  156.4100 N.3     1  UNL1       -0.2668
     45 C         142.8012  136.8493  157.1906 C.3     1  UNL1        0.0939
     46 C         142.8912  136.9077  158.6868 C.3     1  UNL1        0.1081
     47 N         142.6557  138.2048  159.4022 N.pl3   1  UNL1       -0.3051
     48 C         142.3857  138.0296  154.9137 C.3     1  UNL1        0.1173
     49 C         142.2102  136.9347  153.9037 C.3     1  UNL1        0.1606
     50 O         142.2584  137.9471  152.7978 O.3     1  UNL1       -0.3507
     51 C         142.4340  139.0420  153.8079 C.3     1  UNL1        0.1606
@<TRIPOS>BOND
     1    42    41    1
     2    42    43    1
     3    43    44    1
     4    44    48    1
     5    48    49    1
     6    49    50    1
     7    50    51    1
     8    44    45    1
     9    45    46    1
    10    46    47    1
    11    47    35    1
    12    35    36   ar
    13    36    37   ar
    14    37    38   ar
    15    38    33    1
    16    33     1    1
    17     1     2   ar
    18     2     3   ar
    19     3     9    1
    20     9    10   ar
    21    10    11   ar
    22    11    12   ar
    23    12    13   ar
    24    13    15    1
    25    15    16    1
    26    16    17    1
    27    17    18    1
    28    18    19   ar
    29    19    20   ar
    30    20    21   ar
    31    21    22   ar
    32    22    23    1
    33    23    24    1
    34    24    25    1
    35    24    26    1
    36    24    27    1
    37    19    28    1
    38    28    29    2
    39    13    14   ar
    40    14    30    1
    41    30    31    1
    42     3     4   ar
    43     4     5   ar
    44     5     6    1
    45     5     7   ar
    46     7     8    2
    47    38    39   ar
    48    39    40   ar
    49    47    42    1
    50    40    35   ar
    51    51    48    1
    52     7     1   ar
    53    14     9   ar
    54    28    15   am
    55    22    18   ar
    56    27    21    1
    57    33    34    1
    58    31    32    1
