@<TRIPOS>MOLECULE
*****
 30 34 0 0 0
SMALL
GASTEIGER

@<TRIPOS>ATOM
      1 N         141.2980  138.9765  165.1865 N.ar    1  UNL1       -0.2967
      2 C         141.0132  140.2869  165.8587 C.ar    1  UNL1        0.1480
      3 N         139.7757  140.8660  165.2398 N.ar    1  UNL1       -0.2223
      4 C         139.2956  139.9135  164.1851 C.ar    1  UNL1        0.1482
      5 C         138.1232  139.9586  163.2505 C.ar    1  UNL1        0.1511
      6 N         137.8918  138.8360  162.2829 N.ar    1  UNL1       -0.2076
      7 C         138.8326  137.6683  162.2500 C.ar    1  UNL1        0.2015
      8 N         140.0050  137.6232  163.1846 N.ar    1  UNL1       -0.2048
      9 C         140.2365  138.7457  164.1522 C.ar    1  UNL1        0.1672
     10 C         141.8238  140.9090  166.9569 C.ar    1  UNL1        0.0725
     11 C         142.7287  142.0672  166.6575 C.ar    1  UNL1        0.1048
     12 N         143.5391  142.6892  167.7557 N.ar    1  UNL1       -0.2290
     13 C         143.4447  142.1530  169.1534 C.ar    1  UNL1        0.1396
     14 C         144.2553  142.7750  170.2517 C.3     1  UNL1        0.0737
     15 N         142.5398  140.9948  169.4529 N.ar    1  UNL1       -0.2290
     16 C         141.7294  140.3728  168.3547 C.ar    1  UNL1        0.1048
     17 C         143.8504  138.5765  165.4605 C.3     1  UNL1        0.0266
     18 C         142.4433  138.0581  165.4945 C.3     1  UNL1        0.1090
     19 N         137.1823  141.1264  163.2834 N.pl3   1  UNL1       -0.3167
     20 H         136.2143  140.9760  163.3808 H       1  UNL1        0.1482
     21 C         137.7165  142.5234  163.1680 C.3     1  UNL1        0.0919
     22 C         137.4965  143.6354  164.1503 C.3     1  UNL1        0.0428
     23 C         138.2084  144.8528  163.6394 C.3     1  UNL1        0.0952
     24 N         138.8683  144.4932  162.3413 N.am    1  UNL1       -0.2778
     25 C         139.6883  145.4120  161.4848 C.2     1  UNL1        0.2252
     26 O         139.9078  146.8344  161.9075 O.2     1  UNL1       -0.2749
     27 C         138.5643  143.0536  162.0499 C.3     1  UNL1        0.1128
     28 C         140.2888  144.9084  160.2059 C.3     1  UNL1        0.0767
     29 C         141.4038  144.2181  159.4776 C.3     1  UNL1        0.0096
     30 C         140.2138  144.7263  158.7188 C.3     1  UNL1        0.0096
@<TRIPOS>BOND
     1    17    18    1
     2    18     1    1
     3     1     2   ar
     4     2    10    1
     5    10    11   ar
     6    11    12   ar
     7    12    13   ar
     8    13    14    1
     9    13    15   ar
    10    15    16   ar
    11     2     3   ar
    12     3     4   ar
    13     4     5   ar
    14     5    19    1
    15    21    19    1
    16    21    22    1
    17    22    23    1
    18    23    24    1
    19    24    25   am
    20    25    26    2
    21    25    28    1
    22    28    29    1
    23    29    30    1
    24    24    27    1
    25     5     6   ar
    26     6     7   ar
    27     7     8   ar
    28     8     9   ar
    29     9     1   ar
    30    16    10   ar
    31     9     4   ar
    32    27    21    1
    33    30    28    1
    34    19    20    1
@<TRIPOS>MOLECULE
*****
 30 34 0 0 0
SMALL
GASTEIGER

@<TRIPOS>ATOM
      1 N         138.9776  139.0133  164.5871 N.ar    1  UNL1       -0.2967
      2 C         139.4347  140.2335  165.3302 C.ar    1  UNL1        0.1480
      3 N         139.1594  141.4306  164.4694 N.ar    1  UNL1       -0.2223
      4 C         138.5322  140.9502  163.1942 C.ar    1  UNL1        0.1482
      5 C         138.0490  141.6803  161.9763 C.ar    1  UNL1        0.1511
      6 N         137.4533  140.9163  160.8311 N.ar    1  UNL1       -0.2076
      7 C         137.3409  139.4223  160.9039 C.ar    1  UNL1        0.2015
      8 N         137.8242  138.6923  162.1218 N.ar    1  UNL1       -0.2048
      9 C         138.4199  139.4563  163.2670 C.ar    1  UNL1        0.1672
     10 C         140.0576  140.2531  166.6947 C.ar    1  UNL1        0.0725
     11 C         141.5068  140.6063  166.8525 C.ar    1  UNL1        0.1048
     12 N         142.1297  140.6259  168.2169 N.ar    1  UNL1       -0.2290
     13 C         141.3034  140.2922  169.4235 C.ar    1  UNL1        0.1396
     14 C         141.9263  140.3117  170.7879 C.3     1  UNL1        0.0737
     15 N         139.8542  139.9389  169.2656 N.ar    1  UNL1       -0.2290
     16 C         139.2313  139.9193  167.9013 C.ar    1  UNL1        0.1048
     17 C         138.0472  137.0796  166.0518 C.3     1  UNL1        0.0266
     18 C         139.0632  137.5984  165.0780 C.3     1  UNL1        0.1090
     19 N         138.1614  143.1743  161.9035 N.pl3   1  UNL1       -0.3167
     20 H         137.3793  143.7150  161.6478 H       1  UNL1        0.1482
     21 C         139.4653  143.8446  162.2203 C.3     1  UNL1        0.0919
     22 C         139.6350  145.1359  162.9645 C.3     1  UNL1        0.0428
     23 C         141.1031  145.4307  163.0527 C.3     1  UNL1        0.0952
     24 N         141.8408  144.3216  162.3630 N.am    1  UNL1       -0.2778
     25 C         143.3294  144.2119  162.2139 C.2     1  UNL1        0.2252
     26 O         144.2205  145.2754  162.7839 O.2     1  UNL1       -0.2749
     27 C         140.8286  143.3414  161.8486 C.3     1  UNL1        0.1128
     28 C         143.9267  143.0389  161.4949 C.3     1  UNL1        0.0767
     29 C         144.3533  141.6008  161.4855 C.3     1  UNL1        0.0096
     30 C         144.5347  142.4449  160.2589 C.3     1  UNL1        0.0096
@<TRIPOS>BOND
     1    17    18    1
     2    18     1    1
     3     1     2   ar
     4     2    10    1
     5    10    11   ar
     6    11    12   ar
     7    12    13   ar
     8    13    14    1
     9    13    15   ar
    10    15    16   ar
    11     2     3   ar
    12     3     4   ar
    13     4     5   ar
    14     5    19    1
    15    21    19    1
    16    21    22    1
    17    22    23    1
    18    23    24    1
    19    24    25   am
    20    25    26    2
    21    25    28    1
    22    28    29    1
    23    29    30    1
    24    24    27    1
    25     5     6   ar
    26     6     7   ar
    27     7     8   ar
    28     8     9   ar
    29     9     1   ar
    30    16    10   ar
    31     9     4   ar
    32    27    21    1
    33    30    28    1
    34    19    20    1
@<TRIPOS>MOLECULE
*****
 30 34 0 0 0
SMALL
GASTEIGER

@<TRIPOS>ATOM
      1 N         139.4660  143.8929  163.9257 N.ar    1  UNL1       -0.2967
      2 C         140.4669  142.9581  164.5375 C.ar    1  UNL1        0.1480
      3 N         141.6470  142.8744  163.6153 N.ar    1  UNL1       -0.2223
      4 C         141.3754  143.7576  162.4336 C.ar    1  UNL1        0.1482
      5 C         142.1813  144.0699  161.2077 C.ar    1  UNL1        0.1511
      6 N         141.6394  145.0117  160.1737 N.ar    1  UNL1       -0.2076
      7 C         140.2915  145.6411  160.3655 C.ar    1  UNL1        0.2015
      8 N         139.4855  145.3288  161.5914 N.ar    1  UNL1       -0.2048
      9 C         140.0274  144.3870  162.6255 C.ar    1  UNL1        0.1672
     10 C         140.3144  142.2340  165.8423 C.ar    1  UNL1        0.0725
     11 C         139.7030  140.8647  165.8732 C.ar    1  UNL1        0.1048
     12 N         139.5506  140.1407  167.1780 N.ar    1  UNL1       -0.2290
     13 C         140.0095  140.7860  168.4519 C.ar    1  UNL1        0.1396
     14 C         139.8570  140.0620  169.7568 C.3     1  UNL1        0.0737
     15 N         140.6209  142.1554  168.4210 N.ar    1  UNL1       -0.2290
     16 C         140.7733  142.8794  167.1162 C.ar    1  UNL1        0.1048
     17 C         138.0745  145.0692  165.7778 C.3     1  UNL1        0.0266
     18 C         138.1369  144.2679  164.5113 C.3     1  UNL1        0.1090
     19 N         143.5293  143.4404  161.0159 N.pl3   1  UNL1       -0.3167
     20 H         144.2888  143.7234  161.5749 H       1  UNL1        0.1482
     21 C         143.7201  142.3798  159.9725 C.3     1  UNL1        0.0919
     22 C         142.9913  141.0706  159.9025 C.3     1  UNL1        0.0428
     23 C         143.4940  140.3238  158.7027 C.3     1  UNL1        0.0952
     24 N         144.5335  141.1714  158.0311 N.am    1  UNL1       -0.2778
     25 C         145.2989  140.8116  156.7923 C.2     1  UNL1        0.2252
     26 O         145.0503  139.4979  156.1123 O.2     1  UNL1       -0.2749
     27 C         144.6732  142.4421  158.8159 C.3     1  UNL1        0.1128
     28 C         146.3126  141.7654  156.2335 C.3     1  UNL1        0.0767
     29 C         147.5483  142.5976  156.4088 C.3     1  UNL1        0.0096
     30 C         146.8331  142.5855  155.0903 C.3     1  UNL1        0.0096
@<TRIPOS>BOND
     1    17    18    1
     2    18     1    1
     3     1     2   ar
     4     2    10    1
     5    10    11   ar
     6    11    12   ar
     7    12    13   ar
     8    13    14    1
     9    13    15   ar
    10    15    16   ar
    11     2     3   ar
    12     3     4   ar
    13     4     5   ar
    14     5    19    1
    15    21    19    1
    16    21    22    1
    17    22    23    1
    18    23    24    1
    19    24    25   am
    20    25    26    2
    21    25    28    1
    22    28    29    1
    23    29    30    1
    24    24    27    1
    25     5     6   ar
    26     6     7   ar
    27     7     8   ar
    28     8     9   ar
    29     9     1   ar
    30    16    10   ar
    31     9     4   ar
    32    27    21    1
    33    30    28    1
    34    19    20    1
@<TRIPOS>MOLECULE
*****
 30 34 0 0 0
SMALL
GASTEIGER

@<TRIPOS>ATOM
      1 N         139.3160  143.8579  164.1469 N.ar    1  UNL1       -0.2967
      2 C         140.3682  143.0296  164.8229 C.ar    1  UNL1        0.1480
      3 N         141.6026  143.0633  163.9715 N.ar    1  UNL1       -0.2223
      4 C         141.3134  143.9125  162.7692 C.ar    1  UNL1        0.1482
      5 C         142.1543  144.3020  161.5898 C.ar    1  UNL1        0.1511
      6 N         141.5821  145.1824  160.5187 N.ar    1  UNL1       -0.2076
      7 C         140.1689  145.6735  160.6271 C.ar    1  UNL1        0.2015
      8 N         139.3280  145.2840  161.8066 N.ar    1  UNL1       -0.2048
      9 C         139.9002  144.4035  162.8776 C.ar    1  UNL1        0.1672
     10 C         140.2130  142.2964  166.1223 C.ar    1  UNL1        0.0725
     11 C         139.6361  140.9119  166.1380 C.ar    1  UNL1        0.1048
     12 N         139.4810  140.1787  167.4373 N.ar    1  UNL1       -0.2290
     13 C         139.9028  140.8300  168.7210 C.ar    1  UNL1        0.1396
     14 C         139.7476  140.0968  170.0204 C.3     1  UNL1        0.0737
     15 N         140.4797  142.2145  168.7054 N.ar    1  UNL1       -0.2290
     16 C         140.6348  142.9477  167.4060 C.ar    1  UNL1        0.1048
     17 C         137.6918  145.0513  165.7862 C.3     1  UNL1        0.0266
     18 C         137.9241  144.0983  164.6515 C.3     1  UNL1        0.1090
     19 N         143.5676  143.8109  161.4814 N.pl3   1  UNL1       -0.3167
     20 H         144.2968  144.4464  161.2981 H       1  UNL1        0.1482
     21 C         143.8697  142.3516  161.6524 C.3     1  UNL1        0.0919
     22 C         144.7144  141.7469  162.7344 C.3     1  UNL1        0.0428
     23 C         144.7469  140.2624  162.5221 C.3     1  UNL1        0.0952
     24 N         143.9222  139.9495  161.3088 N.am    1  UNL1       -0.2778
     25 C         143.6819  138.5851  160.7340 C.2     1  UNL1        0.2252
     26 O         144.2933  137.3792  161.3837 O.2     1  UNL1       -0.2749
     27 C         143.3801  141.2407  160.7713 C.3     1  UNL1        0.1128
     28 C         142.8302  138.4265  159.5095 C.3     1  UNL1        0.0767
     29 C         142.6642  137.9575  158.0943 C.3     1  UNL1        0.0096
     30 C         141.5210  138.6208  158.8036 C.3     1  UNL1        0.0096
@<TRIPOS>BOND
     1    17    18    1
     2    18     1    1
     3     1     2   ar
     4     2    10    1
     5    10    11   ar
     6    11    12   ar
     7    12    13   ar
     8    13    14    1
     9    13    15   ar
    10    15    16   ar
    11     2     3   ar
    12     3     4   ar
    13     4     5   ar
    14     5    19    1
    15    21    19    1
    16    21    22    1
    17    22    23    1
    18    23    24    1
    19    24    25   am
    20    25    26    2
    21    25    28    1
    22    28    29    1
    23    29    30    1
    24    24    27    1
    25     5     6   ar
    26     6     7   ar
    27     7     8   ar
    28     8     9   ar
    29     9     1   ar
    30    16    10   ar
    31     9     4   ar
    32    27    21    1
    33    30    28    1
    34    19    20    1
@<TRIPOS>MOLECULE
*****
 30 34 0 0 0
SMALL
GASTEIGER

@<TRIPOS>ATOM
      1 N         142.9676  139.3494  164.5787 N.ar    1  UNL1       -0.2967
      2 C         141.7006  140.1020  164.8587 C.ar    1  UNL1        0.1480
      3 N         140.9782  140.2937  163.5581 N.ar    1  UNL1       -0.2223
      4 C         141.7989  139.6596  162.4743 C.ar    1  UNL1        0.1482
      5 C         141.5854  139.5382  160.9945 C.ar    1  UNL1        0.1511
      6 N         142.6013  138.8333  160.1455 N.ar    1  UNL1       -0.2076
      7 C         143.8308  138.2497  160.7763 C.ar    1  UNL1        0.2015
      8 N         144.0442  138.3711  162.2561 N.ar    1  UNL1       -0.2048
      9 C         143.0283  139.0760  163.1051 C.ar    1  UNL1        0.1672
     10 C         141.2372  140.5791  166.2032 C.ar    1  UNL1        0.0725
     11 C         141.7975  141.8434  166.7844 C.ar    1  UNL1        0.1048
     12 N         141.3342  142.3204  168.1289 N.ar    1  UNL1       -0.2290
     13 C         140.3106  141.5332  168.8922 C.ar    1  UNL1        0.1396
     14 C         139.8473  142.0103  170.2368 C.3     1  UNL1        0.0737
     15 N         139.7504  140.2690  168.3111 N.ar    1  UNL1       -0.2290
     16 C         140.2137  139.7920  166.9666 C.ar    1  UNL1        0.1048
     17 C         143.6556  137.9111  166.6300 C.3     1  UNL1        0.0266
     18 C         143.9937  138.9418  165.5940 C.3     1  UNL1        0.1090
     19 N         140.3559  140.1218  160.3638 N.pl3   1  UNL1       -0.3167
     20 H         139.6998  139.5323  159.9265 H       1  UNL1        0.1482
     21 C         140.1260  141.6037  160.3994 C.3     1  UNL1        0.0919
     22 C         140.2964  142.5503  159.2483 C.3     1  UNL1        0.0428
     23 C         139.9611  143.9308  159.7298 C.3     1  UNL1        0.0952
     24 N         139.5835  143.8374  161.1785 N.am    1  UNL1       -0.2778
     25 C         139.1756  144.9813  162.0588 C.2     1  UNL1        0.2252
     26 O         139.1193  146.3731  161.5020 O.2     1  UNL1       -0.2749
     27 C         139.6855  142.3992  161.5923 C.3     1  UNL1        0.1128
     28 C         138.8242  144.7336  163.4958 C.3     1  UNL1        0.0767
     29 C         139.1983  144.7618  164.9482 C.3     1  UNL1        0.0096
     30 C         137.8412  144.2763  164.5325 C.3     1  UNL1        0.0096
@<TRIPOS>BOND
     1    17    18    1
     2    18     1    1
     3     1     2   ar
     4     2    10    1
     5    10    11   ar
     6    11    12   ar
     7    12    13   ar
     8    13    14    1
     9    13    15   ar
    10    15    16   ar
    11     2     3   ar
    12     3     4   ar
    13     4     5   ar
    14     5    19    1
    15    21    19    1
    16    21    22    1
    17    22    23    1
    18    23    24    1
    19    24    25   am
    20    25    26    2
    21    25    28    1
    22    28    29    1
    23    29    30    1
    24    24    27    1
    25     5     6   ar
    26     6     7   ar
    27     7     8   ar
    28     8     9   ar
    29     9     1   ar
    30    16    10   ar
    31     9     4   ar
    32    27    21    1
    33    30    28    1
    34    19    20    1
@<TRIPOS>MOLECULE
*****
 30 34 0 0 0
SMALL
GASTEIGER

@<TRIPOS>ATOM
      1 N         140.2514  143.5894  159.1496 N.ar    1  UNL1       -0.2967
      2 C         140.4226  143.1312  160.5676 C.ar    1  UNL1        0.1480
      3 N         139.5222  141.9514  160.7854 N.ar    1  UNL1       -0.2223
      4 C         138.7946  141.6806  159.5019 C.ar    1  UNL1        0.1482
      5 C         137.7798  140.6428  159.1232 C.ar    1  UNL1        0.1511
      6 N         137.2158  140.6174  157.7335 N.ar    1  UNL1       -0.2076
      7 C         137.6664  141.6298  156.7226 C.ar    1  UNL1        0.2015
      8 N         138.6812  142.6675  157.1013 N.ar    1  UNL1       -0.2048
      9 C         139.2452  142.6929  158.4910 C.ar    1  UNL1        0.1672
     10 C         141.3341  143.7450  161.5886 C.ar    1  UNL1        0.0725
     11 C         140.7593  144.4071  162.8056 C.ar    1  UNL1        0.1048
     12 N         141.6709  145.0209  163.8265 N.ar    1  UNL1       -0.2290
     13 C         143.1572  144.9726  163.6304 C.ar    1  UNL1        0.1396
     14 C         144.0688  145.5864  164.6514 C.3     1  UNL1        0.0737
     15 N         143.7320  144.3105  162.4134 N.ar    1  UNL1       -0.2290
     16 C         142.8205  143.6967  161.3925 C.ar    1  UNL1        0.1048
     17 C         140.1748  145.8161  157.8131 C.3     1  UNL1        0.0266
     18 C         140.9617  144.7419  158.5036 C.3     1  UNL1        0.1090
     19 N         137.3291  139.6305  160.1342 N.pl3   1  UNL1       -0.3167
     20 H         136.3748  139.4005  160.2088 H       1  UNL1        0.1482
     21 C         138.3325  138.9686  161.0315 C.3     1  UNL1        0.0919
     22 C         139.6218  138.3366  160.5975 C.3     1  UNL1        0.0428
     23 C         140.3089  137.7999  161.8181 C.3     1  UNL1        0.0952
     24 N         139.4444  138.1003  163.0065 N.am    1  UNL1       -0.2778
     25 C         139.7479  137.7414  164.4309 C.2     1  UNL1        0.2252
     26 O         141.0163  137.0145  164.7672 O.2     1  UNL1       -0.2749
     27 C         138.2229  138.8226  162.5203 C.3     1  UNL1        0.1128
     28 C         138.7832  138.1093  165.5189 C.3     1  UNL1        0.0767
     29 C         138.1187  139.1522  166.3680 C.3     1  UNL1        0.0096
     30 C         137.7767  137.7037  166.5546 C.3     1  UNL1        0.0096
@<TRIPOS>BOND
     1    17    18    1
     2    18     1    1
     3     1     2   ar
     4     2    10    1
     5    10    11   ar
     6    11    12   ar
     7    12    13   ar
     8    13    14    1
     9    13    15   ar
    10    15    16   ar
    11     2     3   ar
    12     3     4   ar
    13     4     5   ar
    14     5    19    1
    15    21    19    1
    16    21    22    1
    17    22    23    1
    18    23    24    1
    19    24    25   am
    20    25    26    2
    21    25    28    1
    22    28    29    1
    23    29    30    1
    24    24    27    1
    25     5     6   ar
    26     6     7   ar
    27     7     8   ar
    28     8     9   ar
    29     9     1   ar
    30    16    10   ar
    31     9     4   ar
    32    27    21    1
    33    30    28    1
    34    19    20    1
@<TRIPOS>MOLECULE
*****
 30 34 0 0 0
SMALL
GASTEIGER

@<TRIPOS>ATOM
      1 N         141.3557  144.4050  163.2882 N.ar    1  UNL1       -0.2967
      2 C         140.8749  143.2224  164.0758 C.ar    1  UNL1        0.1480
      3 N         139.9813  142.4071  163.1887 N.ar    1  UNL1       -0.2223
      4 C         139.9099  143.0859  161.8530 C.ar    1  UNL1        0.1482
      5 C         139.1811  142.7392  160.5886 C.ar    1  UNL1        0.1511
      6 N         139.3017  143.6272  159.3858 N.ar    1  UNL1       -0.2076
      7 C         140.1511  144.8619  159.4473 C.ar    1  UNL1        0.2015
      8 N         140.8799  145.2087  160.7117 N.ar    1  UNL1       -0.2048
      9 C         140.7593  144.3207  161.9145 C.ar    1  UNL1        0.1672
     10 C         141.2261  142.9099  165.5003 C.ar    1  UNL1        0.0725
     11 C         142.5984  142.4100  165.8421 C.ar    1  UNL1        0.1048
     12 N         142.9495  142.0976  167.2665 N.ar    1  UNL1       -0.2290
     13 C         141.9283  142.2850  168.3491 C.ar    1  UNL1        0.1396
     14 C         142.2794  141.9725  169.7736 C.3     1  UNL1        0.0737
     15 N         140.5560  142.7848  168.0073 N.ar    1  UNL1       -0.2290
     16 C         140.2049  143.0972  166.5829 C.ar    1  UNL1        0.1048
     17 C         143.7551  145.2586  163.8024 C.3     1  UNL1        0.0266
     18 C         142.2721  145.4828  163.7869 C.3     1  UNL1        0.1090
     19 N         138.3317  141.5043  160.5271 N.pl3   1  UNL1       -0.3167
     20 H         137.5062  141.5009  159.9906 H       1  UNL1        0.1482
     21 C         138.7399  140.2748  161.2831 C.3     1  UNL1        0.0919
     22 C         137.8257  139.3702  162.0551 C.3     1  UNL1        0.0428
     23 C         138.6549  138.2703  162.6489 C.3     1  UNL1        0.0952
     24 N         140.0816  138.4951  162.2441 N.am    1  UNL1       -0.2778
     25 C         141.2505  137.6325  162.6177 C.2     1  UNL1        0.2252
     26 O         141.0431  136.4178  163.4730 O.2     1  UNL1       -0.2749
     27 C         140.1341  139.7339  161.4000 C.3     1  UNL1        0.1128
     28 C         142.6267  137.9846  162.1360 C.3     1  UNL1        0.0767
     29 C         143.9349  138.6887  162.3431 C.3     1  UNL1        0.0096
     30 C         143.7022  137.8904  161.0946 C.3     1  UNL1        0.0096
@<TRIPOS>BOND
     1    17    18    1
     2    18     1    1
     3     1     2   ar
     4     2    10    1
     5    10    11   ar
     6    11    12   ar
     7    12    13   ar
     8    13    14    1
     9    13    15   ar
    10    15    16   ar
    11     2     3   ar
    12     3     4   ar
    13     4     5   ar
    14     5    19    1
    15    21    19    1
    16    21    22    1
    17    22    23    1
    18    23    24    1
    19    24    25   am
    20    25    26    2
    21    25    28    1
    22    28    29    1
    23    29    30    1
    24    24    27    1
    25     5     6   ar
    26     6     7   ar
    27     7     8   ar
    28     8     9   ar
    29     9     1   ar
    30    16    10   ar
    31     9     4   ar
    32    27    21    1
    33    30    28    1
    34    19    20    1
@<TRIPOS>MOLECULE
*****
 30 34 0 0 0
SMALL
GASTEIGER

@<TRIPOS>ATOM
      1 N         140.5639  143.6400  160.4666 N.ar    1  UNL1       -0.2967
      2 C         141.4137  142.4091  160.3541 C.ar    1  UNL1        0.1480
      3 N         140.9687  141.4406  161.4096 N.ar    1  UNL1       -0.2223
      4 C         139.8439  142.0731  162.1744 C.ar    1  UNL1        0.1482
      5 C         139.0151  141.5868  163.3263 C.ar    1  UNL1        0.1511
      6 N         137.9362  142.4598  163.8952 N.ar    1  UNL1       -0.2076
      7 C         137.6861  143.8191  163.3124 C.ar    1  UNL1        0.2015
      8 N         138.5148  144.3054  162.1606 N.ar    1  UNL1       -0.2048
      9 C         139.5937  143.4324  161.5916 C.ar    1  UNL1        0.1672
     10 C         142.5151  142.1858  159.3606 C.ar    1  UNL1        0.0725
     11 C         143.8793  142.7562  159.6124 C.ar    1  UNL1        0.1048
     12 N         144.9806  142.5329  158.6188 N.ar    1  UNL1       -0.2290
     13 C         144.7177  141.7392  157.3735 C.ar    1  UNL1        0.1396
     14 C         145.8192  141.5160  156.3799 C.3     1  UNL1        0.0737
     15 N         143.3535  141.1688  157.1216 N.ar    1  UNL1       -0.2290
     16 C         142.2522  141.3921  158.1152 C.ar    1  UNL1        0.1048
     17 C         140.1984  144.8197  158.1808 C.3     1  UNL1        0.0266
     18 C         140.6663  144.8638  159.6053 C.3     1  UNL1        0.1090
     19 N         139.2654  140.2275  163.9091 N.pl3   1  UNL1       -0.3167
     20 H         139.5642  139.4905  163.3288 H       1  UNL1        0.1482
     21 C         139.0603  139.9911  165.3761 C.3     1  UNL1        0.0919
     22 C         138.2419  138.8920  165.9862 C.3     1  UNL1        0.0428
     23 C         138.3134  139.0340  167.4777 C.3     1  UNL1        0.0952
     24 N         139.1760  140.2209  167.7895 N.am    1  UNL1       -0.2778
     25 C         139.5172  140.7273  169.1596 C.2     1  UNL1        0.2252
     26 O         138.9789  140.0286  170.3729 O.2     1  UNL1       -0.2749
     27 C         139.6376  140.8124  166.4906 C.3     1  UNL1        0.1128
     28 C         140.3964  141.9324  169.3163 C.3     1  UNL1        0.0767
     29 C         141.7627  142.5516  169.3228 C.3     1  UNL1        0.0096
     30 C         140.5533  143.4005  169.5813 C.3     1  UNL1        0.0096
@<TRIPOS>BOND
     1    17    18    1
     2    18     1    1
     3     1     2   ar
     4     2    10    1
     5    10    11   ar
     6    11    12   ar
     7    12    13   ar
     8    13    14    1
     9    13    15   ar
    10    15    16   ar
    11     2     3   ar
    12     3     4   ar
    13     4     5   ar
    14     5    19    1
    15    21    19    1
    16    21    22    1
    17    22    23    1
    18    23    24    1
    19    24    25   am
    20    25    26    2
    21    25    28    1
    22    28    29    1
    23    29    30    1
    24    24    27    1
    25     5     6   ar
    26     6     7   ar
    27     7     8   ar
    28     8     9   ar
    29     9     1   ar
    30    16    10   ar
    31     9     4   ar
    32    27    21    1
    33    30    28    1
    34    19    20    1
@<TRIPOS>MOLECULE
*****
 30 34 0 0 0
SMALL
GASTEIGER

@<TRIPOS>ATOM
      1 N         143.8679  139.8572  163.5566 N.ar    1  UNL1       -0.2967
      2 C         142.6585  139.9229  164.4416 C.ar    1  UNL1        0.1480
      3 N         141.4413  139.8112  163.5721 N.ar    1  UNL1       -0.2223
      4 C         141.8985  139.6766  162.1498 C.ar    1  UNL1        0.1482
      5 C         141.1429  139.5317  160.8621 C.ar    1  UNL1        0.1511
      6 N         141.8869  139.4153  159.5649 N.ar    1  UNL1       -0.2076
      7 C         143.3866  139.4437  159.5554 C.ar    1  UNL1        0.2015
      8 N         144.1422  139.5886  160.8430 N.ar    1  UNL1       -0.2048
      9 C         143.3981  139.7050  162.1402 C.ar    1  UNL1        0.1672
     10 C         142.6652  140.0738  165.9340 C.ar    1  UNL1        0.0725
     11 C         142.9894  138.8967  166.8053 C.ar    1  UNL1        0.1048
     12 N         142.9961  139.0476  168.2977 N.ar    1  UNL1       -0.2290
     13 C         142.6785  140.3755  168.9187 C.ar    1  UNL1        0.1396
     14 C         142.6852  140.5264  170.4111 C.3     1  UNL1        0.0737
     15 N         142.3542  141.5526  168.0473 N.ar    1  UNL1       -0.2290
     16 C         142.3475  141.4017  166.5550 C.ar    1  UNL1        0.1048
     17 C         146.0109  141.2496  164.0246 C.3     1  UNL1        0.0266
     18 C         145.2962  139.9309  164.0087 C.3     1  UNL1        0.1090
     19 N         139.6431  139.5033  160.8717 N.pl3   1  UNL1       -0.3167
     20 H         139.1607  138.8085  160.3680 H       1  UNL1        0.1482
     21 C         138.8784  140.5336  161.6487 C.3     1  UNL1        0.0919
     22 C         137.6179  140.2954  162.4261 C.3     1  UNL1        0.0428
     23 C         137.2004  141.5975  163.0427 C.3     1  UNL1        0.0952
     24 N         138.2029  142.6405  162.6464 N.am    1  UNL1       -0.2778
     25 C         138.1736  144.0871  163.0420 C.2     1  UNL1        0.2252
     26 O         137.0672  144.6040  163.9131 O.2     1  UNL1       -0.2749
     27 C         139.2400  141.9829  161.7849 C.3     1  UNL1        0.1128
     28 C         139.2505  145.0166  162.5667 C.3     1  UNL1        0.0767
     29 C         139.6931  146.1546  161.6952 C.3     1  UNL1        0.0096
     30 C         140.6735  145.4889  162.6148 C.3     1  UNL1        0.0096
@<TRIPOS>BOND
     1    17    18    1
     2    18     1    1
     3     1     2   ar
     4     2    10    1
     5    10    11   ar
     6    11    12   ar
     7    12    13   ar
     8    13    14    1
     9    13    15   ar
    10    15    16   ar
    11     2     3   ar
    12     3     4   ar
    13     4     5   ar
    14     5    19    1
    15    21    19    1
    16    21    22    1
    17    22    23    1
    18    23    24    1
    19    24    25   am
    20    25    26    2
    21    25    28    1
    22    28    29    1
    23    29    30    1
    24    24    27    1
    25     5     6   ar
    26     6     7   ar
    27     7     8   ar
    28     8     9   ar
    29     9     1   ar
    30    16    10   ar
    31     9     4   ar
    32    27    21    1
    33    30    28    1
    34    19    20    1
