@<TRIPOS>MOLECULE
*****
 39 40 0 0 0
SMALL
GASTEIGER

@<TRIPOS>ATOM
      1 C         141.7581  138.2358  158.7948 C.2     1  UNL1        0.2302
      2 O         142.5869  137.5408  159.8341 O.2     1  UNL1       -0.2744
      3 N         140.5141  138.9714  159.1964 N.am    1  UNL1       -0.2836
      4 H         139.9701  139.4276  158.5143 H       1  UNL1        0.1549
      5 C         140.0988  139.0120  160.6372 C.ar    1  UNL1        0.0503
      6 C         140.7337  139.9972  161.5733 C.ar    1  UNL1        0.0144
      7 C         140.3186  140.0378  163.0140 C.ar    1  UNL1       -0.0002
      8 C         139.2684  139.0931  163.5189 C.ar    1  UNL1        0.0182
      9 C         138.6335  138.1079  162.5829 C.ar    1  UNL1       -0.0002
     10 C         139.0488  138.0673  161.1420 C.ar    1  UNL1        0.0144
     11 C         138.8532  139.1337  164.9597 C.3     1  UNL1        0.2827
     12 O         139.4491  137.7733  165.1697 O.3     1  UNL1       -0.3692
     13 H         139.3244  137.5048  166.0934 H       1  UNL1        0.2112
     14 C         138.4380  139.1743  166.4005 C.3     1  UNL1        0.4311
     15 F         138.0229  139.2149  167.8414 F       1  UNL1       -0.1669
     16 F         139.8778  139.2564  166.8131 F       1  UNL1       -0.1669
     17 F         137.5644  139.1291  166.2624 F       1  UNL1       -0.1669
     18 C         138.2574  140.4942  164.7496 C.3     1  UNL1        0.4311
     19 F         137.6615  141.8546  164.5396 F       1  UNL1       -0.1669
     20 F         137.6007  140.2424  164.2112 F       1  UNL1       -0.1669
     21 F         139.1293  141.4022  165.5651 F       1  UNL1       -0.1669
     22 C         142.1734  138.1952  157.3541 C.3     1  UNL1        0.1081
     23 C         145.5944  140.7459  155.9257 C.ar    1  UNL1        0.1056
     24 C         145.1417  139.5725  155.1085 C.ar    1  UNL1        0.0180
     25 C         144.0013  138.7222  155.5846 C.ar    1  UNL1       -0.0025
     26 C         143.3137  139.0455  156.8779 C.ar    1  UNL1       -0.0133
     27 C         143.7665  140.2189  157.6951 C.ar    1  UNL1       -0.0025
     28 C         144.9069  141.0692  157.2190 C.ar    1  UNL1        0.0180
     29 S         146.7348  141.5962  155.4496 S.O2    1  UNL1        0.0087
     30 O         146.9332  142.1111  156.8444 O.2     1  UNL1       -0.1686
     31 O         146.5364  141.0812  154.0548 O.2     1  UNL1       -0.1686
     32 C         149.2835  141.9418  155.0826 C.3     1  UNL1        0.0276
     33 C         147.8751  142.4464  154.9735 C.3     1  UNL1        0.1560
     34 C         141.4483  137.3044  156.3894 C.3     1  UNL1        0.0985
     35 C         141.8417  135.8628  156.2587 C.2     1  UNL1        0.2233
     36 O         143.0723  135.3556  156.9502 O.2     1  UNL1       -0.2751
     37 N         141.0045  134.9285  155.4364 N.am    1  UNL1       -0.3026
     38 C         141.3979  133.4869  155.3057 C.3     1  UNL1        0.1107
     39 H         140.1968  135.2614  154.9825 H       1  UNL1        0.1495
@<TRIPOS>BOND
     1    32    33    1
     2    33    29    1
     3    29    30    2
     4    29    31    2
     5    29    23    1
     6    23    24   ar
     7    24    25   ar
     8    25    26   ar
     9    26    22    1
    10    22    34    1
    11    34    35    1
    12    35    36    2
    13    35    37   am
    14    37    38    1
    15    22     1    1
    16     1     2    2
    17     1     3   am
    18     3     5    1
    19     5     6   ar
    20     6     7   ar
    21     7     8   ar
    22     8    11    1
    23    11    12    1
    24    11    14    1
    25    14    15    1
    26    14    16    1
    27    14    17    1
    28    11    18    1
    29    18    19    1
    30    18    20    1
    31    18    21    1
    32     8     9   ar
    33     9    10   ar
    34    26    27   ar
    35    27    28   ar
    36    28    23   ar
    37    10     5   ar
    38    37    39    1
    39     3     4    1
    40    12    13    1
@<TRIPOS>MOLECULE
*****
 39 40 0 0 0
SMALL
GASTEIGER

@<TRIPOS>ATOM
      1 C         141.2732  141.3694  161.5488 C.2     1  UNL1        0.2302
      2 O         142.5559  141.4958  162.3162 O.2     1  UNL1       -0.2744
      3 N         139.9995  141.0351  162.2670 N.am    1  UNL1       -0.2836
      4 H         139.1576  140.9521  161.7634 H       1  UNL1        0.1549
      5 C         140.0084  140.8272  163.7526 C.ar    1  UNL1        0.0503
      6 C         139.7619  141.9853  164.6734 C.ar    1  UNL1        0.0144
      7 C         139.7709  141.7775  166.1589 C.ar    1  UNL1       -0.0002
      8 C         140.0263  140.4115  166.7236 C.ar    1  UNL1        0.0182
      9 C         140.2729  139.2533  165.8027 C.ar    1  UNL1       -0.0002
     10 C         140.2639  139.4612  164.3172 C.ar    1  UNL1        0.0144
     11 C         140.0353  140.2036  168.2091 C.3     1  UNL1        0.2827
     12 O         138.7702  139.4045  168.1049 O.3     1  UNL1       -0.3692
     13 H         138.5030  139.1056  168.9881 H       1  UNL1        0.2112
     14 C         140.0443  139.9958  169.6945 C.3     1  UNL1        0.4311
     15 F         140.0532  139.7880  171.1801 F       1  UNL1       -0.1669
     16 F         138.7939  140.8153  169.8167 F       1  UNL1       -0.1669
     17 F         140.7777  139.5006  169.7299 F       1  UNL1       -0.1669
     18 C         141.3004  141.0027  168.3132 C.3     1  UNL1        0.4311
     19 F         142.5656  141.8018  168.4174 F       1  UNL1       -0.1669
     20 F         141.8355  140.4078  167.9333 F       1  UNL1       -0.1669
     21 F         140.8716  142.2762  168.9799 F       1  UNL1       -0.1669
     22 C         141.2643  141.5772  160.0633 C.3     1  UNL1        0.1081
     23 C         142.6535  138.2894  157.3229 C.ar    1  UNL1        0.1056
     24 C         142.5541  138.0434  158.7992 C.ar    1  UNL1        0.0180
     25 C         142.0910  139.1393  159.7127 C.ar    1  UNL1       -0.0025
     26 C         141.7274  140.4813  159.1499 C.ar    1  UNL1       -0.0133
     27 C         141.8268  140.7273  157.6736 C.ar    1  UNL1       -0.0025
     28 C         142.2899  139.6314  156.7601 C.ar    1  UNL1        0.0180
     29 S         143.1166  137.1935  156.4094 S.O2    1  UNL1        0.0087
     30 O         141.8757  136.4101  156.7201 O.2     1  UNL1       -0.1686
     31 O         144.3575  137.9768  156.0986 O.2     1  UNL1       -0.1686
     32 C         143.7656  134.7070  156.0268 C.3     1  UNL1        0.0276
     33 C         143.5797  136.0975  155.4959 C.3     1  UNL1        0.1560
     34 C         140.7923  142.8811  159.4914 C.3     1  UNL1        0.0985
     35 C         140.9032  144.1391  160.3007 C.2     1  UNL1        0.2233
     36 O         142.2539  144.6990  160.6354 O.2     1  UNL1       -0.2751
     37 N         139.6633  144.8372  160.7754 N.am    1  UNL1       -0.3026
     38 C         139.7742  146.0953  161.5848 C.3     1  UNL1        0.1107
     39 H         138.7767  144.4697  160.5558 H       1  UNL1        0.1495
@<TRIPOS>BOND
     1    32    33    1
     2    33    29    1
     3    29    30    2
     4    29    31    2
     5    29    23    1
     6    23    24   ar
     7    24    25   ar
     8    25    26   ar
     9    26    22    1
    10    22    34    1
    11    34    35    1
    12    35    36    2
    13    35    37   am
    14    37    38    1
    15    22     1    1
    16     1     2    2
    17     1     3   am
    18     3     5    1
    19     5     6   ar
    20     6     7   ar
    21     7     8   ar
    22     8    11    1
    23    11    12    1
    24    11    14    1
    25    14    15    1
    26    14    16    1
    27    14    17    1
    28    11    18    1
    29    18    19    1
    30    18    20    1
    31    18    21    1
    32     8     9   ar
    33     9    10   ar
    34    26    27   ar
    35    27    28   ar
    36    28    23   ar
    37    10     5   ar
    38    37    39    1
    39     3     4    1
    40    12    13    1
@<TRIPOS>MOLECULE
*****
 39 40 0 0 0
SMALL
GASTEIGER

@<TRIPOS>ATOM
      1 C         141.7360  143.0519  162.1086 C.2     1  UNL1        0.2302
      2 O         141.5407  141.5786  162.3121 O.2     1  UNL1       -0.2744
      3 N         141.9696  143.9475  163.2889 N.am    1  UNL1       -0.2836
      4 H         142.0978  144.9145  163.1554 H       1  UNL1        0.1549
      5 C         142.0080  143.3699  164.6728 C.ar    1  UNL1        0.0503
      6 C         143.3230  143.0151  165.3011 C.ar    1  UNL1        0.0144
      7 C         143.3615  142.4375  166.6849 C.ar    1  UNL1       -0.0002
      8 C         142.0849  142.2147  167.4404 C.ar    1  UNL1        0.0182
      9 C         140.7699  142.5695  166.8120 C.ar    1  UNL1       -0.0002
     10 C         140.7315  143.1471  165.4282 C.ar    1  UNL1        0.0144
     11 C         142.1233  141.6371  168.8241 C.3     1  UNL1        0.2827
     12 O         142.6846  140.3591  168.2751 O.3     1  UNL1       -0.3692
     13 H         142.8290  139.7314  169.0004 H       1  UNL1        0.2112
     14 C         142.1618  141.0596  170.2079 C.3     1  UNL1        0.4311
     15 F         142.2003  140.4819  171.5918 F       1  UNL1       -0.1669
     16 F         143.6565  141.1844  170.2185 F       1  UNL1       -0.1669
     17 F         141.2886  140.9448  170.3014 F       1  UNL1       -0.1669
     18 C         141.5621  142.9152  169.3732 C.3     1  UNL1        0.4311
     19 F         141.0008  144.1933  169.9223 F       1  UNL1       -0.1669
     20 F         142.3358  143.3276  169.4991 F       1  UNL1       -0.1669
     21 F         140.0785  142.6941  169.3630 F       1  UNL1       -0.1669
     22 C         141.6976  143.6294  160.7248 C.3     1  UNL1        0.1081
     23 C         144.8616  142.5054  157.7289 C.ar    1  UNL1        0.1056
     24 C         145.1523  142.4121  159.1975 C.ar    1  UNL1        0.0180
     25 C         144.0976  142.7867  160.1961 C.ar    1  UNL1       -0.0025
     26 C         142.7522  143.2547  159.7262 C.ar    1  UNL1       -0.0133
     27 C         142.4616  143.3481  158.2576 C.ar    1  UNL1       -0.0025
     28 C         143.5163  142.9734  157.2590 C.ar    1  UNL1        0.0180
     29 S         145.9163  142.1308  156.7303 S.O2    1  UNL1        0.0087
     30 O         146.9509  142.8315  157.5601 O.2     1  UNL1       -0.1686
     31 O         144.8817  141.4300  155.9005 O.2     1  UNL1       -0.1686
     32 C         147.2901  142.6813  154.5950 C.3     1  UNL1        0.0276
     33 C         146.9710  141.7561  155.7317 C.3     1  UNL1        0.1560
     34 C         140.6045  144.5816  160.3396 C.3     1  UNL1        0.0985
     35 C         139.5507  144.9576  161.3388 C.2     1  UNL1        0.2233
     36 O         139.3231  146.4000  161.6819 O.2     1  UNL1       -0.2751
     37 N         138.7247  143.8912  161.9949 N.am    1  UNL1       -0.3026
     38 C         137.6710  144.2672  162.9940 C.3     1  UNL1        0.1107
     39 H         138.8741  142.9445  161.7697 H       1  UNL1        0.1495
@<TRIPOS>BOND
     1    32    33    1
     2    33    29    1
     3    29    30    2
     4    29    31    2
     5    29    23    1
     6    23    24   ar
     7    24    25   ar
     8    25    26   ar
     9    26    22    1
    10    22    34    1
    11    34    35    1
    12    35    36    2
    13    35    37   am
    14    37    38    1
    15    22     1    1
    16     1     2    2
    17     1     3   am
    18     3     5    1
    19     5     6   ar
    20     6     7   ar
    21     7     8   ar
    22     8    11    1
    23    11    12    1
    24    11    14    1
    25    14    15    1
    26    14    16    1
    27    14    17    1
    28    11    18    1
    29    18    19    1
    30    18    20    1
    31    18    21    1
    32     8     9   ar
    33     9    10   ar
    34    26    27   ar
    35    27    28   ar
    36    28    23   ar
    37    10     5   ar
    38    37    39    1
    39     3     4    1
    40    12    13    1
@<TRIPOS>MOLECULE
*****
 39 40 0 0 0
SMALL
GASTEIGER

@<TRIPOS>ATOM
      1 C         141.7549  138.2824  158.7608 C.2     1  UNL1        0.2302
      2 O         142.6259  137.6433  159.8016 O.2     1  UNL1       -0.2744
      3 N         140.4727  138.9492  159.1623 N.am    1  UNL1       -0.2836
      4 H         139.9010  139.3686  158.4793 H       1  UNL1        0.1549
      5 C         140.0613  138.9768  160.6046 C.ar    1  UNL1        0.0503
      6 C         139.0033  138.0365  161.1009 C.ar    1  UNL1        0.0144
      7 C         138.5919  138.0641  162.5431 C.ar    1  UNL1       -0.0002
      8 C         139.2386  139.0321  163.4891 C.ar    1  UNL1        0.0182
      9 C         140.2967  139.9724  162.9928 C.ar    1  UNL1       -0.0002
     10 C         140.7080  139.9448  161.5505 C.ar    1  UNL1        0.0144
     11 C         138.8273  139.0597  164.9313 C.3     1  UNL1        0.2827
     12 O         139.4065  137.6893  165.1227 O.3     1  UNL1       -0.3692
     13 H         139.2806  137.4108  166.0433 H       1  UNL1        0.2112
     14 C         138.4159  139.0873  166.3735 C.3     1  UNL1        0.4311
     15 F         138.0046  139.1149  167.8158 F       1  UNL1       -0.1669
     16 F         139.8564  139.1731  166.7827 F       1  UNL1       -0.1669
     17 F         137.5421  139.0390  166.2375 F       1  UNL1       -0.1669
     18 C         138.2481  140.4300  164.7399 C.3     1  UNL1        0.4311
     19 F         137.6688  141.8003  164.5484 F       1  UNL1       -0.1669
     20 F         137.5889  140.1937  164.1973 F       1  UNL1       -0.1669
     21 F         139.1300  141.3159  165.5688 F       1  UNL1       -0.1669
     22 C         142.1663  138.2548  157.3186 C.3     1  UNL1        0.1081
     23 C         142.2726  134.3505  155.0837 C.ar    1  UNL1        0.1056
     24 C         141.0238  135.1813  155.0830 C.ar    1  UNL1        0.0180
     25 C         140.9883  136.4827  155.8280 C.ar    1  UNL1       -0.0025
     26 C         142.2017  136.9533  156.5736 C.ar    1  UNL1       -0.0133
     27 C         143.4506  136.1225  156.5743 C.ar    1  UNL1       -0.0025
     28 C         143.4860  134.8211  155.8293 C.ar    1  UNL1        0.0180
     29 S         142.3081  133.0490  154.3387 S.O2    1  UNL1        0.0087
     30 O         143.5245  132.6382  155.1143 O.2     1  UNL1       -0.1686
     31 O         141.0916  133.4599  153.5631 O.2     1  UNL1       -0.1686
     32 C         143.6198  130.9636  153.5138 C.3     1  UNL1        0.0276
     33 C         142.3435  131.7476  153.5937 C.3     1  UNL1        0.1560
     34 C         142.5422  139.5285  156.6214 C.3     1  UNL1        0.0985
     35 C         143.9597  140.0171  156.6648 C.2     1  UNL1        0.2233
     36 O         144.6619  140.1657  157.9819 O.2     1  UNL1       -0.2751
     37 N         144.6751  140.3571  155.3909 N.am    1  UNL1       -0.3026
     38 C         146.0927  140.8457  155.4342 C.3     1  UNL1        0.1107
     39 H         144.2143  140.2596  154.5264 H       1  UNL1        0.1495
@<TRIPOS>BOND
     1    32    33    1
     2    33    29    1
     3    29    30    2
     4    29    31    2
     5    29    23    1
     6    23    24   ar
     7    24    25   ar
     8    25    26   ar
     9    26    22    1
    10    22    34    1
    11    34    35    1
    12    35    36    2
    13    35    37   am
    14    37    38    1
    15    22     1    1
    16     1     2    2
    17     1     3   am
    18     3     5    1
    19     5     6   ar
    20     6     7   ar
    21     7     8   ar
    22     8    11    1
    23    11    12    1
    24    11    14    1
    25    14    15    1
    26    14    16    1
    27    14    17    1
    28    11    18    1
    29    18    19    1
    30    18    20    1
    31    18    21    1
    32     8     9   ar
    33     9    10   ar
    34    26    27   ar
    35    27    28   ar
    36    28    23   ar
    37    10     5   ar
    38    37    39    1
    39     3     4    1
    40    12    13    1
@<TRIPOS>MOLECULE
*****
 39 40 0 0 0
SMALL
GASTEIGER

@<TRIPOS>ATOM
      1 C         140.4569  141.3819  162.1588 C.2     1  UNL1        0.2302
      2 O         141.8989  141.5977  162.5115 O.2     1  UNL1       -0.2744
      3 N         139.4544  141.1020  163.2389 N.am    1  UNL1       -0.2836
      4 H         138.5080  140.9604  163.0074 H       1  UNL1        0.1549
      5 C         139.8938  141.0380  164.6717 C.ar    1  UNL1        0.0503
      6 C         139.8023  142.2581  165.5394 C.ar    1  UNL1        0.0144
      7 C         140.2417  142.1941  166.9722 C.ar    1  UNL1       -0.0002
      8 C         140.7726  140.9100  167.5373 C.ar    1  UNL1        0.0182
      9 C         140.8641  139.6899  166.6695 C.ar    1  UNL1       -0.0002
     10 C         140.4247  139.7539  165.2367 C.ar    1  UNL1        0.0144
     11 C         141.2120  140.8460  168.9700 C.3     1  UNL1        0.2827
     12 O         142.6397  141.0072  168.5394 O.3     1  UNL1       -0.3692
     13 H         143.2154  141.0029  169.3201 H       1  UNL1        0.2112
     14 C         141.6513  140.7821  170.4028 C.3     1  UNL1        0.4311
     15 F         142.0908  140.7181  171.8356 F       1  UNL1       -0.1669
     16 F         142.1086  142.2086  170.3262 F       1  UNL1       -0.1669
     17 F         141.4150  139.9414  170.5508 F       1  UNL1       -0.1669
     18 C         139.7842  140.6849  169.4007 C.3     1  UNL1        0.4311
     19 F         138.3564  140.5236  169.8313 F       1  UNL1       -0.1669
     20 F         139.6776  139.8541  169.1124 F       1  UNL1       -0.1669
     21 F         139.4450  142.0018  170.0334 F       1  UNL1       -0.1669
     22 C         140.0176  141.4459  160.7260 C.3     1  UNL1        0.1081
     23 C         141.3837  138.3016  157.8110 C.ar    1  UNL1        0.1056
     24 C         139.9941  138.2498  158.3735 C.ar    1  UNL1        0.0180
     25 C         139.5388  139.2979  159.3452 C.ar    1  UNL1       -0.0025
     26 C         140.4729  140.3978  159.7543 C.ar    1  UNL1       -0.0133
     27 C         141.8625  140.4496  159.1919 C.ar    1  UNL1       -0.0025
     28 C         142.3178  139.4015  158.2202 C.ar    1  UNL1        0.0180
     29 S         141.8390  137.2535  156.8393 S.O2    1  UNL1        0.0087
     30 O         140.4328  137.1073  156.3381 O.2     1  UNL1       -0.1686
     31 O         143.2452  137.3997  157.3406 O.2     1  UNL1       -0.1686
     32 C         143.7393  136.1255  155.4732 C.3     1  UNL1        0.0276
     33 C         142.2944  136.2054  155.8677 C.3     1  UNL1        0.1560
     34 C         139.1229  142.5580  160.2649 C.3     1  UNL1        0.0985
     35 C         138.9737  143.7955  161.0994 C.2     1  UNL1        0.2233
     36 O         137.9587  143.8381  162.2029 O.2     1  UNL1       -0.2751
     37 N         139.8396  144.9905  160.8302 N.am    1  UNL1       -0.3026
     38 C         139.6904  146.2280  161.6647 C.3     1  UNL1        0.1107
     39 H         140.5058  144.9625  160.1059 H       1  UNL1        0.1495
@<TRIPOS>BOND
     1    32    33    1
     2    33    29    1
     3    29    30    2
     4    29    31    2
     5    29    23    1
     6    23    24   ar
     7    24    25   ar
     8    25    26   ar
     9    26    22    1
    10    22    34    1
    11    34    35    1
    12    35    36    2
    13    35    37   am
    14    37    38    1
    15    22     1    1
    16     1     2    2
    17     1     3   am
    18     3     5    1
    19     5     6   ar
    20     6     7   ar
    21     7     8   ar
    22     8    11    1
    23    11    12    1
    24    11    14    1
    25    14    15    1
    26    14    16    1
    27    14    17    1
    28    11    18    1
    29    18    19    1
    30    18    20    1
    31    18    21    1
    32     8     9   ar
    33     9    10   ar
    34    26    27   ar
    35    27    28   ar
    36    28    23   ar
    37    10     5   ar
    38    37    39    1
    39     3     4    1
    40    12    13    1
@<TRIPOS>MOLECULE
*****
 39 40 0 0 0
SMALL
GASTEIGER

@<TRIPOS>ATOM
      1 C         141.9349  138.0588  157.7401 C.2     1  UNL1        0.2302
      2 O         140.8639  138.2862  158.7654 O.2     1  UNL1       -0.2744
      3 N         143.3057  138.6313  157.9478 N.am    1  UNL1       -0.2836
      4 H         144.0086  138.4820  157.2748 H       1  UNL1        0.1549
      5 C         143.6055  139.4312  159.1808 C.ar    1  UNL1        0.0503
      6 C         143.6842  140.9272  159.1035 C.ar    1  UNL1        0.0144
      7 C         143.9840  141.7271  160.3364 C.ar    1  UNL1       -0.0002
      8 C         144.2050  141.0311  161.6467 C.ar    1  UNL1        0.0182
      9 C         144.1262  139.5352  161.7240 C.ar    1  UNL1       -0.0002
     10 C         143.8265  138.7352  160.4910 C.ar    1  UNL1        0.0144
     11 C         144.5048  141.8311  162.8797 C.3     1  UNL1        0.2827
     12 O         145.9180  142.0196  162.4138 O.3     1  UNL1       -0.3692
     13 H         146.4054  142.5479  163.0650 H       1  UNL1        0.2112
     14 C         144.8045  142.6310  164.1126 C.3     1  UNL1        0.4311
     15 F         145.1043  143.4311  165.3456 F       1  UNL1       -0.1669
     16 F         144.4786  143.8942  163.3723 F       1  UNL1       -0.1669
     17 F         145.0171  141.9483  164.6353 F       1  UNL1       -0.1669
     18 C         143.0915  141.6426  163.3456 C.3     1  UNL1        0.4311
     19 F         141.6782  141.4541  163.8115 F       1  UNL1       -0.1669
     20 F         142.7246  142.2638  162.8317 F       1  UNL1       -0.1669
     21 F         143.1884  140.5462  164.3646 F       1  UNL1       -0.1669
     22 C         141.6351  137.2589  156.5071 C.3     1  UNL1        0.1081
     23 C         142.8331  132.9268  156.2890 C.ar    1  UNL1        0.1056
     24 C         143.4766  133.8331  157.2962 C.ar    1  UNL1        0.0180
     25 C         143.0773  135.2771  157.3689 C.ar    1  UNL1       -0.0025
     26 C         142.0344  135.8148  156.4344 C.ar    1  UNL1       -0.0133
     27 C         141.3909  134.9085  155.4273 C.ar    1  UNL1       -0.0025
     28 C         141.7903  133.4645  155.3546 C.ar    1  UNL1        0.0180
     29 S         143.2325  131.4827  156.2163 S.O2    1  UNL1        0.0087
     30 O         142.3604  131.3023  155.0094 O.2     1  UNL1       -0.1686
     31 O         144.1046  131.6632  157.4233 O.2     1  UNL1       -0.1686
     32 C         144.8178  129.6290  155.3216 C.3     1  UNL1        0.0276
     33 C         143.6319  130.0387  156.1437 C.3     1  UNL1        0.1560
     34 C         140.9359  137.9030  155.3469 C.3     1  UNL1        0.0985
     35 C         139.4595  138.1604  155.4099 C.2     1  UNL1        0.2233
     36 O         138.5189  137.0485  155.7690 O.2     1  UNL1       -0.2751
     37 N         138.9237  139.5299  155.1137 N.am    1  UNL1       -0.3026
     38 C         137.4473  139.7873  155.1767 C.3     1  UNL1        0.1107
     39 H         139.5410  140.2596  154.8780 H       1  UNL1        0.1495
@<TRIPOS>BOND
     1    32    33    1
     2    33    29    1
     3    29    30    2
     4    29    31    2
     5    29    23    1
     6    23    24   ar
     7    24    25   ar
     8    25    26   ar
     9    26    22    1
    10    22    34    1
    11    34    35    1
    12    35    36    2
    13    35    37   am
    14    37    38    1
    15    22     1    1
    16     1     2    2
    17     1     3   am
    18     3     5    1
    19     5     6   ar
    20     6     7   ar
    21     7     8   ar
    22     8    11    1
    23    11    12    1
    24    11    14    1
    25    14    15    1
    26    14    16    1
    27    14    17    1
    28    11    18    1
    29    18    19    1
    30    18    20    1
    31    18    21    1
    32     8     9   ar
    33     9    10   ar
    34    26    27   ar
    35    27    28   ar
    36    28    23   ar
    37    10     5   ar
    38    37    39    1
    39     3     4    1
    40    12    13    1
@<TRIPOS>MOLECULE
*****
 39 40 0 0 0
SMALL
GASTEIGER

@<TRIPOS>ATOM
      1 C         139.4484  139.9112  162.2611 C.2     1  UNL1        0.2302
      2 O         139.5371  138.4309  162.4869 O.2     1  UNL1       -0.2744
      3 N         140.0571  140.5203  161.0328 N.am    1  UNL1       -0.2836
      4 H         139.9989  141.4918  160.8846 H       1  UNL1        0.1549
      5 C         140.7544  139.6491  160.0304 C.ar    1  UNL1        0.0503
      6 C         142.2047  139.3111  160.2107 C.ar    1  UNL1        0.0144
      7 C         142.9020  138.4400  159.2084 C.ar    1  UNL1       -0.0002
      8 C         142.1491  137.9066  158.0257 C.ar    1  UNL1        0.0182
      9 C         140.6988  138.2445  157.8454 C.ar    1  UNL1       -0.0002
     10 C         140.0015  139.1158  158.8478 C.ar    1  UNL1        0.0144
     11 C         142.8464  137.0354  157.0233 C.3     1  UNL1        0.2827
     12 O         143.0177  135.9718  158.0670 O.3     1  UNL1       -0.3692
     13 H         143.4798  135.2114  157.6809 H       1  UNL1        0.2112
     14 C         143.5437  136.1642  156.0210 C.3     1  UNL1        0.4311
     15 F         144.2411  135.2930  155.0186 F       1  UNL1       -0.1669
     16 F         142.4143  135.1796  156.0911 F       1  UNL1       -0.1669
     17 F         144.2558  136.6785  155.9078 F       1  UNL1       -0.1669
     18 C         142.6750  138.0990  155.9797 C.3     1  UNL1        0.4311
     19 F         142.5037  139.1627  154.9359 F       1  UNL1       -0.1669
     20 F         143.2405  138.6848  156.3286 F       1  UNL1       -0.1669
     21 F         141.6772  137.5135  155.0250 F       1  UNL1       -0.1669
     22 C         138.7511  140.7824  163.2634 C.3     1  UNL1        0.1081
     23 C         139.6576  140.3364  167.6486 C.ar    1  UNL1        0.1056
     24 C         140.3720  141.3760  166.8370 C.ar    1  UNL1        0.0180
     25 C         140.0698  141.5247  165.3753 C.ar    1  UNL1       -0.0025
     26 C         139.0533  140.6337  164.7251 C.ar    1  UNL1       -0.0133
     27 C         138.3389  139.5941  165.5367 C.ar    1  UNL1       -0.0025
     28 C         138.6410  139.4454  166.9984 C.ar    1  UNL1        0.0180
     29 S         139.9597  140.1877  169.1103 S.O2    1  UNL1        0.0087
     30 O         138.5665  139.6848  169.3471 O.2     1  UNL1       -0.1686
     31 O         141.3529  140.6907  168.8735 O.2     1  UNL1       -0.1686
     32 C         141.1075  141.0620  171.2709 C.3     1  UNL1        0.0276
     33 C         140.2618  140.0391  170.5720 C.3     1  UNL1        0.1560
     34 C         137.7517  141.8022  162.8041 C.3     1  UNL1        0.0985
     35 C         138.0430  143.2645  162.9677 C.2     1  UNL1        0.2233
     36 O         137.5300  144.0017  164.1690 O.2     1  UNL1       -0.2751
     37 N         138.8475  143.9897  161.9298 N.am    1  UNL1       -0.3026
     38 C         139.1388  145.4520  162.0934 C.3     1  UNL1        0.1107
     39 H         139.1842  143.5059  161.1413 H       1  UNL1        0.1495
@<TRIPOS>BOND
     1    32    33    1
     2    33    29    1
     3    29    30    2
     4    29    31    2
     5    29    23    1
     6    23    24   ar
     7    24    25   ar
     8    25    26   ar
     9    26    22    1
    10    22    34    1
    11    34    35    1
    12    35    36    2
    13    35    37   am
    14    37    38    1
    15    22     1    1
    16     1     2    2
    17     1     3   am
    18     3     5    1
    19     5     6   ar
    20     6     7   ar
    21     7     8   ar
    22     8    11    1
    23    11    12    1
    24    11    14    1
    25    14    15    1
    26    14    16    1
    27    14    17    1
    28    11    18    1
    29    18    19    1
    30    18    20    1
    31    18    21    1
    32     8     9   ar
    33     9    10   ar
    34    26    27   ar
    35    27    28   ar
    36    28    23   ar
    37    10     5   ar
    38    37    39    1
    39     3     4    1
    40    12    13    1
@<TRIPOS>MOLECULE
*****
 39 40 0 0 0
SMALL
GASTEIGER

@<TRIPOS>ATOM
      1 C         142.4618  141.5152  162.4073 C.2     1  UNL1        0.2302
      2 O         142.9346  140.2214  163.0012 O.2     1  UNL1       -0.2744
      3 N         141.8077  142.5459  163.2791 N.am    1  UNL1       -0.2836
      4 H         141.4974  143.3950  162.8893 H       1  UNL1        0.1549
      5 C         141.6266  142.2828  164.7448 C.ar    1  UNL1        0.0503
      6 C         140.3094  141.7832  165.2599 C.ar    1  UNL1        0.0144
      7 C         140.1282  141.5202  166.7254 C.ar    1  UNL1       -0.0002
      8 C         141.2643  141.7566  167.6760 C.ar    1  UNL1        0.0182
      9 C         142.5816  142.2562  167.1608 C.ar    1  UNL1       -0.0002
     10 C         142.7627  142.5193  165.6952 C.ar    1  UNL1        0.0144
     11 C         141.0832  141.4936  169.1415 C.3     1  UNL1        0.2827
     12 O         141.3779  140.0401  168.9170 O.3     1  UNL1       -0.3692
     13 H         141.3310  139.5664  169.7622 H       1  UNL1        0.2112
     14 C         140.9020  141.2305  170.6071 C.3     1  UNL1        0.4311
     15 F         140.7209  140.9674  172.0727 F       1  UNL1       -0.1669
     16 F         142.3591  140.8949  170.7270 F       1  UNL1       -0.1669
     17 F         140.0351  141.4082  170.6424 F       1  UNL1       -0.1669
     18 C         140.7884  142.9470  169.3660 C.3     1  UNL1        0.4311
     19 F         140.4936  144.4006  169.5905 F       1  UNL1       -0.1669
     20 F         139.9721  142.9460  169.0221 F       1  UNL1       -0.1669
     21 F         142.0332  143.4737  170.0164 F       1  UNL1       -0.1669
     22 C         142.6429  141.7782  160.9418 C.3     1  UNL1        0.1081
     23 C         142.0507  138.4524  157.9688 C.ar    1  UNL1        0.1056
     24 C         143.3090  139.2683  157.9407 C.ar    1  UNL1        0.0180
     25 C         143.5064  140.3770  158.9316 C.ar    1  UNL1       -0.0025
     26 C         142.4455  140.6696  159.9508 C.ar    1  UNL1       -0.0133
     27 C         141.1872  139.8537  159.9790 C.ar    1  UNL1       -0.0025
     28 C         140.9898  138.7451  158.9880 C.ar    1  UNL1        0.0180
     29 S         141.8533  137.3438  156.9779 S.O2    1  UNL1        0.0087
     30 O         143.3402  137.2055  156.8364 O.2     1  UNL1       -0.1686
     31 O         140.3664  137.4821  157.1193 O.2     1  UNL1       -0.1686
     32 C         142.3847  134.9357  156.1603 C.3     1  UNL1        0.0276
     33 C         141.6559  136.2352  155.9869 C.3     1  UNL1        0.1560
     34 C         143.0214  143.1499  160.4672 C.3     1  UNL1        0.0985
     35 C         141.9712  144.0706  159.9202 C.2     1  UNL1        0.2233
     36 O         140.6687  144.2375  160.6453 O.2     1  UNL1       -0.2751
     37 N         142.2234  144.8245  158.6481 N.am    1  UNL1       -0.3026
     38 C         141.1732  145.7453  158.1012 C.3     1  UNL1        0.1107
     39 H         143.0783  144.7149  158.1722 H       1  UNL1        0.1495
@<TRIPOS>BOND
     1    32    33    1
     2    33    29    1
     3    29    30    2
     4    29    31    2
     5    29    23    1
     6    23    24   ar
     7    24    25   ar
     8    25    26   ar
     9    26    22    1
    10    22    34    1
    11    34    35    1
    12    35    36    2
    13    35    37   am
    14    37    38    1
    15    22     1    1
    16     1     2    2
    17     1     3   am
    18     3     5    1
    19     5     6   ar
    20     6     7   ar
    21     7     8   ar
    22     8    11    1
    23    11    12    1
    24    11    14    1
    25    14    15    1
    26    14    16    1
    27    14    17    1
    28    11    18    1
    29    18    19    1
    30    18    20    1
    31    18    21    1
    32     8     9   ar
    33     9    10   ar
    34    26    27   ar
    35    27    28   ar
    36    28    23   ar
    37    10     5   ar
    38    37    39    1
    39     3     4    1
    40    12    13    1
@<TRIPOS>MOLECULE
*****
 39 40 0 0 0
SMALL
GASTEIGER

@<TRIPOS>ATOM
      1 C         141.4407  141.6020  162.3689 C.2     1  UNL1        0.2302
      2 O         140.6779  140.3836  162.7974 O.2     1  UNL1       -0.2744
      3 N         142.0059  142.5339  163.3995 N.am    1  UNL1       -0.2836
      4 H         142.5066  143.3336  163.1183 H       1  UNL1        0.1549
      5 C         141.8083  142.2474  164.8586 C.ar    1  UNL1        0.0503
      6 C         142.8981  141.5831  165.6468 C.ar    1  UNL1        0.0144
      7 C         142.7006  141.2966  167.1058 C.ar    1  UNL1       -0.0002
      8 C         141.4132  141.6742  167.7768 C.ar    1  UNL1        0.0182
      9 C         140.3234  142.3384  166.9886 C.ar    1  UNL1       -0.0002
     10 C         140.5210  142.6250  165.5295 C.ar    1  UNL1        0.0144
     11 C         141.2156  141.3876  169.2358 C.3     1  UNL1        0.2827
     12 O         141.3815  139.9207  168.9701 O.3     1  UNL1       -0.3692
     13 H         141.2968  139.4298  169.8024 H       1  UNL1        0.2112
     14 C         141.0181  141.1010  170.6948 C.3     1  UNL1        0.4311
     15 F         140.8206  140.8144  172.1539 F       1  UNL1       -0.1669
     16 F         142.4612  141.4187  170.9526 F       1  UNL1       -0.1669
     17 F         140.1581  140.8942  170.6488 F       1  UNL1       -0.1669
     18 C         141.0498  142.8545  169.5015 C.3     1  UNL1        0.4311
     19 F         140.8839  144.3215  169.7671 F       1  UNL1       -0.1669
     20 F         141.8830  143.0924  169.3176 F       1  UNL1       -0.1669
     21 F         139.6106  142.9905  169.9017 F       1  UNL1       -0.1669
     22 C         141.6383  141.8886  160.9099 C.3     1  UNL1        0.1081
     23 C         141.7845  138.5010  157.9513 C.ar    1  UNL1        0.1056
     24 C         140.4899  139.2111  158.2151 C.ar    1  UNL1        0.0180
     25 C         140.4411  140.3403  159.2013 C.ar    1  UNL1       -0.0025
     26 C         141.6871  140.7594  159.9237 C.ar    1  UNL1       -0.0133
     27 C         142.9817  140.0493  159.6599 C.ar    1  UNL1       -0.0025
     28 C         143.0304  138.9202  158.6737 C.ar    1  UNL1        0.0180
     29 S         141.8333  137.3719  156.9651 S.O2    1  UNL1        0.0087
     30 O         140.3346  137.3079  156.9643 O.2     1  UNL1       -0.1686
     31 O         143.3319  137.4359  156.9658 O.2     1  UNL1       -0.1686
     32 C         140.9489  136.2318  154.8045 C.3     1  UNL1        0.0276
     33 C         141.8820  136.2427  155.9789 C.3     1  UNL1        0.1560
     34 C         141.7872  143.3043  160.4371 C.3     1  UNL1        0.0985
     35 C         140.6539  144.2731  160.6018 C.2     1  UNL1        0.2233
     36 O         139.3532  144.0332  159.8942 O.2     1  UNL1       -0.2751
     37 N         140.8213  145.4818  161.4741 N.am    1  UNL1       -0.3026
     38 C         139.6881  146.4507  161.6388 C.3     1  UNL1        0.1107
     39 H         141.6750  145.6393  161.9385 H       1  UNL1        0.1495
@<TRIPOS>BOND
     1    32    33    1
     2    33    29    1
     3    29    30    2
     4    29    31    2
     5    29    23    1
     6    23    24   ar
     7    24    25   ar
     8    25    26   ar
     9    26    22    1
    10    22    34    1
    11    34    35    1
    12    35    36    2
    13    35    37   am
    14    37    38    1
    15    22     1    1
    16     1     2    2
    17     1     3   am
    18     3     5    1
    19     5     6   ar
    20     6     7   ar
    21     7     8   ar
    22     8    11    1
    23    11    12    1
    24    11    14    1
    25    14    15    1
    26    14    16    1
    27    14    17    1
    28    11    18    1
    29    18    19    1
    30    18    20    1
    31    18    21    1
    32     8     9   ar
    33     9    10   ar
    34    26    27   ar
    35    27    28   ar
    36    28    23   ar
    37    10     5   ar
    38    37    39    1
    39     3     4    1
    40    12    13    1
