@<TRIPOS>MOLECULE
*****
 35 38 0 0 0
SMALL
GASTEIGER

@<TRIPOS>ATOM
      1 C         143.7656  142.1673  164.6128 C.ar    1  UNL1        0.1532
      2 C         143.6701  142.6015  166.0454 C.ar    1  UNL1        0.0573
      3 C         142.6699  141.9576  166.9592 C.ar    1  UNL1        0.0856
      4 N         142.5744  142.3918  168.3918 N.ar    1  UNL1       -0.2435
      5 C         141.5742  141.7479  169.3056 C.ar    1  UNL1        0.1045
      6 C         140.6695  140.6697  168.7867 C.ar    1  UNL1        0.0856
      7 C         140.7650  140.2356  167.3541 C.ar    1  UNL1        0.0557
      8 C         141.7652  140.8795  166.4403 C.ar    1  UNL1        0.0327
      9 C         141.8607  140.4453  165.0078 C.ar    1  UNL1        0.0203
     10 C         142.8609  141.0892  164.0940 C.ar    1  UNL1        0.0825
     11 N         142.9564  140.6550  162.6614 N.pl3   1  UNL1       -0.3023
     12 C         143.9704  139.6269  162.2553 C.3     1  UNL1        0.1082
     13 C         144.0659  139.1927  160.8227 C.3     1  UNL1        0.0938
     14 N         143.1475  139.7865  159.7961 N.3     1  UNL1       -0.2686
     15 C         143.2430  139.3523  158.3636 C.3     1  UNL1        0.0897
     16 C         142.1335  140.8146  160.2022 C.3     1  UNL1        0.0938
     17 C         142.0380  141.2489  161.6349 C.3     1  UNL1        0.1082
     18 C         139.6693  140.0258  169.7004 C.2     1  UNL1        0.2455
     19 N         140.0246  139.7601  171.1333 N.am    1  UNL1       -0.3252
     20 O         138.3137  139.6476  169.1813 O.2     1  UNL1       -0.2703
     21 H         140.9143  140.0083  171.4740 H       1  UNL1        0.1453
     22 H         139.3681  139.3375  171.7330 H       1  UNL1        0.1453
     23 N         139.8603  139.1575  166.8353 N.pl3   1  UNL1       -0.3106
     24 H         139.6504  138.3777  167.3985 H       1  UNL1        0.1523
     25 C         139.2755  139.2674  165.4583 C.ar    1  UNL1        0.0761
     26 C         138.4346  140.4547  165.0932 C.ar    1  UNL1        0.0166
     27 C         137.8498  140.5646  163.7164 C.ar    1  UNL1       -0.0028
     28 C         138.1057  139.4872  162.7045 C.ar    1  UNL1       -0.0195
     29 C         137.5209  139.5971  161.3276 C.3     1  UNL1        0.0311
     30 C         138.9465  138.2999  163.0696 C.ar    1  UNL1        0.0267
     31 C         139.5314  138.1900  164.4466 C.ar    1  UNL1        0.1531
     32 F         140.3722  137.0027  164.8117 F       1  UNL1       -0.2029
     33 O         144.7658  142.8112  163.6991 O.3     1  UNL1       -0.4742
     34 C         143.6033  145.1082  163.3489 C.3     1  UNL1        0.0512
     35 C         144.3426  143.9280  162.7915 C.3     1  UNL1        0.2056
@<TRIPOS>BOND
     1    34    35    1
     2    35    33    1
     3    33     1    1
     4     1     2   ar
     5     2     3   ar
     6     3     4   ar
     7     4     5   ar
     8     5     6   ar
     9     6    18    1
    10    18    19   am
    11    18    20    2
    12     6     7   ar
    13     7    23    1
    14    23    25    1
    15    25    26   ar
    16    26    27   ar
    17    27    28   ar
    18    28    29    1
    19    28    30   ar
    20    30    31   ar
    21    31    32    1
    22     7     8   ar
    23     8     9   ar
    24     9    10   ar
    25    10    11    1
    26    11    12    1
    27    12    13    1
    28    13    14    1
    29    14    15    1
    30    14    16    1
    31    16    17    1
    32    10     1   ar
    33    17    11    1
    34     8     3   ar
    35    31    25   ar
    36    19    21    1
    37    19    22    1
    38    23    24    1
@<TRIPOS>MOLECULE
*****
 35 38 0 0 0
SMALL
GASTEIGER

@<TRIPOS>ATOM
      1 C         138.1180  141.0502  162.7455 C.ar    1  UNL1        0.1532
      2 C         137.5809  140.1445  163.8137 C.ar    1  UNL1        0.0573
      3 C         138.2358  140.1047  165.1625 C.ar    1  UNL1        0.0856
      4 N         137.6986  139.1989  166.2307 N.ar    1  UNL1       -0.2435
      5 C         138.3536  139.1592  167.5796 C.ar    1  UNL1        0.1045
      6 C         139.5458  140.0253  167.8603 C.ar    1  UNL1        0.0856
      7 C         140.0829  140.9310  166.7921 C.ar    1  UNL1        0.0557
      8 C         139.4279  140.9708  165.4432 C.ar    1  UNL1        0.0327
      9 C         139.9651  141.8765  164.3750 C.ar    1  UNL1        0.0203
     10 C         139.3101  141.9162  163.0262 C.ar    1  UNL1        0.0825
     11 N         139.8473  142.8220  161.9580 N.pl3   1  UNL1       -0.3023
     12 C         140.7423  142.2711  160.8877 C.3     1  UNL1        0.1082
     13 C         141.2795  143.1768  159.8196 C.3     1  UNL1        0.0938
     14 N         140.9217  144.6336  159.8216 N.3     1  UNL1       -0.2686
     15 C         141.4589  145.5393  158.7534 C.3     1  UNL1        0.0897
     16 C         140.0267  145.1845  160.8918 C.3     1  UNL1        0.0938
     17 C         139.4895  144.2787  161.9600 C.3     1  UNL1        0.1082
     18 C         140.2007  139.9856  169.2091 C.2     1  UNL1        0.2455
     19 N         139.3606  140.0015  170.4516 N.am    1  UNL1       -0.3252
     20 O         141.6960  139.9299  169.3155 O.2     1  UNL1       -0.2703
     21 H         138.3792  140.0380  170.3818 H       1  UNL1        0.1453
     22 H         139.7904  139.9754  171.3369 H       1  UNL1        0.1453
     23 N         141.2750  141.7970  167.0728 N.pl3   1  UNL1       -0.3106
     24 H         141.2777  142.3916  167.8575 H       1  UNL1        0.1523
     25 C         142.4631  141.7572  166.1579 C.ar    1  UNL1        0.0761
     26 C         143.0671  143.0356  165.6569 C.ar    1  UNL1        0.0166
     27 C         144.2551  142.9959  164.7421 C.ar    1  UNL1       -0.0028
     28 C         144.8392  141.6777  164.3281 C.ar    1  UNL1       -0.0195
     29 C         146.0272  141.6379  163.4132 C.3     1  UNL1        0.0311
     30 C         144.2352  140.3993  164.8290 C.ar    1  UNL1        0.0267
     31 C         143.0471  140.4391  165.7439 C.ar    1  UNL1        0.1531
     32 F         142.4431  139.1607  166.2448 F       1  UNL1       -0.2029
     33 O         137.4630  141.0899  161.3966 O.3     1  UNL1       -0.4742
     34 C         138.2080  140.2504  159.0535 C.3     1  UNL1        0.0512
     35 C         137.6751  139.9658  160.4265 C.3     1  UNL1        0.2056
@<TRIPOS>BOND
     1    34    35    1
     2    35    33    1
     3    33     1    1
     4     1     2   ar
     5     2     3   ar
     6     3     4   ar
     7     4     5   ar
     8     5     6   ar
     9     6    18    1
    10    18    19   am
    11    18    20    2
    12     6     7   ar
    13     7    23    1
    14    23    25    1
    15    25    26   ar
    16    26    27   ar
    17    27    28   ar
    18    28    29    1
    19    28    30   ar
    20    30    31   ar
    21    31    32    1
    22     7     8   ar
    23     8     9   ar
    24     9    10   ar
    25    10    11    1
    26    11    12    1
    27    12    13    1
    28    13    14    1
    29    14    15    1
    30    14    16    1
    31    16    17    1
    32    10     1   ar
    33    17    11    1
    34     8     3   ar
    35    31    25   ar
    36    19    21    1
    37    19    22    1
    38    23    24    1
@<TRIPOS>MOLECULE
*****
 35 38 0 0 0
SMALL
GASTEIGER

@<TRIPOS>ATOM
      1 C         143.3314  143.2748  164.4336 C.ar    1  UNL1        0.1532
      2 C         143.8458  143.0246  165.8202 C.ar    1  UNL1        0.0573
      3 C         142.9662  142.3612  166.8382 C.ar    1  UNL1        0.0856
      4 N         143.4807  142.1111  168.2248 N.ar    1  UNL1       -0.2435
      5 C         142.6011  141.4477  169.2428 C.ar    1  UNL1        0.1045
      6 C         141.2071  141.0345  168.8741 C.ar    1  UNL1        0.0856
      7 C         140.6927  141.2846  167.4875 C.ar    1  UNL1        0.0557
      8 C         141.5722  141.9480  166.4695 C.ar    1  UNL1        0.0327
      9 C         141.0578  142.1981  165.0829 C.ar    1  UNL1        0.0203
     10 C         141.9374  142.8615  164.0649 C.ar    1  UNL1        0.0825
     11 N         141.4229  143.1117  162.6782 N.pl3   1  UNL1       -0.3023
     12 C         140.9850  144.4893  162.2779 C.3     1  UNL1        0.1082
     13 C         140.4706  144.7395  160.8913 C.3     1  UNL1        0.0938
     14 N         140.3940  143.6120  159.9049 N.3     1  UNL1       -0.2686
     15 C         139.8795  143.8622  158.5184 C.3     1  UNL1        0.0897
     16 C         140.8319  142.2343  160.3052 C.3     1  UNL1        0.0938
     17 C         141.3464  141.9842  161.6919 C.3     1  UNL1        0.1082
     18 C         140.3275  140.3711  169.8920 C.2     1  UNL1        0.2455
     19 N         140.8438  139.2071  170.6848 N.am    1  UNL1       -0.3252
     20 O         138.9315  140.8717  170.1172 O.2     1  UNL1       -0.2703
     21 H         141.7600  138.8785  170.5370 H       1  UNL1        0.1453
     22 H         140.2665  138.7717  171.3529 H       1  UNL1        0.1453
     23 N         139.2987  140.8714  167.1188 N.pl3   1  UNL1       -0.3106
     24 H         138.5479  141.0805  167.7204 H       1  UNL1        0.1523
     25 C         139.0485  140.1396  165.8335 C.ar    1  UNL1        0.0761
     26 C         139.6133  138.7648  165.6310 C.ar    1  UNL1        0.0166
     27 C         139.3631  138.0330  164.3458 C.ar    1  UNL1       -0.0028
     28 C         138.5481  138.6759  163.2630 C.ar    1  UNL1       -0.0195
     29 C         138.2979  137.9441  161.9778 C.3     1  UNL1        0.0311
     30 C         137.9833  140.0507  163.4655 C.ar    1  UNL1        0.0267
     31 C         138.2335  140.7825  164.7508 C.ar    1  UNL1        0.1531
     32 F         137.6686  142.1573  164.9532 F       1  UNL1       -0.2029
     33 O         144.2110  143.9382  163.4156 O.3     1  UNL1       -0.4742
     34 C         145.1905  141.6854  162.5698 C.3     1  UNL1        0.0512
     35 C         144.8427  143.1239  162.3257 C.3     1  UNL1        0.2056
@<TRIPOS>BOND
     1    34    35    1
     2    35    33    1
     3    33     1    1
     4     1     2   ar
     5     2     3   ar
     6     3     4   ar
     7     4     5   ar
     8     5     6   ar
     9     6    18    1
    10    18    19   am
    11    18    20    2
    12     6     7   ar
    13     7    23    1
    14    23    25    1
    15    25    26   ar
    16    26    27   ar
    17    27    28   ar
    18    28    29    1
    19    28    30   ar
    20    30    31   ar
    21    31    32    1
    22     7     8   ar
    23     8     9   ar
    24     9    10   ar
    25    10    11    1
    26    11    12    1
    27    12    13    1
    28    13    14    1
    29    14    15    1
    30    14    16    1
    31    16    17    1
    32    10     1   ar
    33    17    11    1
    34     8     3   ar
    35    31    25   ar
    36    19    21    1
    37    19    22    1
    38    23    24    1
@<TRIPOS>MOLECULE
*****
 35 38 0 0 0
SMALL
GASTEIGER

@<TRIPOS>ATOM
      1 C         139.1361  143.4620  164.0818 C.ar    1  UNL1        0.1532
      2 C         139.4642  143.8245  165.4999 C.ar    1  UNL1        0.0573
      3 C         140.0295  142.7897  166.4270 C.ar    1  UNL1        0.0856
      4 N         140.3576  143.1522  167.8451 N.ar    1  UNL1       -0.2435
      5 C         140.9229  142.1173  168.7722 C.ar    1  UNL1        0.1045
      6 C         141.1601  140.7199  168.2811 C.ar    1  UNL1        0.0856
      7 C         140.8321  140.3575  166.8631 C.ar    1  UNL1        0.0557
      8 C         140.2667  141.3923  165.9360 C.ar    1  UNL1        0.0327
      9 C         139.9387  141.0298  164.5179 C.ar    1  UNL1        0.0203
     10 C         139.3733  142.0647  163.5909 C.ar    1  UNL1        0.0825
     11 N         139.0453  141.7022  162.1727 N.pl3   1  UNL1       -0.3023
     12 C         139.8701  142.2535  161.0477 C.3     1  UNL1        0.1082
     13 C         139.5420  141.8910  159.6296 C.3     1  UNL1        0.0938
     14 N         138.3892  140.9771  159.3365 N.3     1  UNL1       -0.2686
     15 C         138.0612  140.6147  157.9185 C.3     1  UNL1        0.0897
     16 C         137.5644  140.4258  160.4616 C.3     1  UNL1        0.0938
     17 C         137.8925  140.7884  161.8797 C.3     1  UNL1        0.1082
     18 C         141.7254  139.6851  169.2082 C.2     1  UNL1        0.2455
     19 N         141.0148  139.3557  170.4874 N.am    1  UNL1       -0.3252
     20 O         143.0015  138.9795  168.8560 O.2     1  UNL1       -0.2703
     21 H         140.1773  139.8188  170.7186 H       1  UNL1        0.1453
     22 H         141.3858  138.6765  171.0959 H       1  UNL1        0.1453
     23 N         141.0693  138.9601  166.3721 N.pl3   1  UNL1       -0.3106
     24 H         140.7364  138.1928  166.8913 H       1  UNL1        0.1523
     25 C         141.8138  138.7319  165.0900 C.ar    1  UNL1        0.0761
     26 C         143.1864  139.3084  164.9069 C.ar    1  UNL1        0.0166
     27 C         143.9309  139.0802  163.6249 C.ar    1  UNL1       -0.0028
     28 C         143.3027  138.2755  162.5258 C.ar    1  UNL1       -0.0195
     29 C         144.0472  138.0473  161.2438 C.3     1  UNL1        0.0311
     30 C         141.9301  137.6990  162.7088 C.ar    1  UNL1        0.0267
     31 C         141.1856  137.9272  163.9910 C.ar    1  UNL1        0.1531
     32 F         139.8129  137.3508  164.1740 F       1  UNL1       -0.2029
     33 O         138.5708  144.4969  163.1548 O.3     1  UNL1       -0.4742
     34 C         140.9626  145.4057  162.7043 C.3     1  UNL1        0.0512
     35 C         139.4785  145.5012  162.5088 C.3     1  UNL1        0.2056
@<TRIPOS>BOND
     1    34    35    1
     2    35    33    1
     3    33     1    1
     4     1     2   ar
     5     2     3   ar
     6     3     4   ar
     7     4     5   ar
     8     5     6   ar
     9     6    18    1
    10    18    19   am
    11    18    20    2
    12     6     7   ar
    13     7    23    1
    14    23    25    1
    15    25    26   ar
    16    26    27   ar
    17    27    28   ar
    18    28    29    1
    19    28    30   ar
    20    30    31   ar
    21    31    32    1
    22     7     8   ar
    23     8     9   ar
    24     9    10   ar
    25    10    11    1
    26    11    12    1
    27    12    13    1
    28    13    14    1
    29    14    15    1
    30    14    16    1
    31    16    17    1
    32    10     1   ar
    33    17    11    1
    34     8     3   ar
    35    31    25   ar
    36    19    21    1
    37    19    22    1
    38    23    24    1
@<TRIPOS>MOLECULE
*****
 35 38 0 0 0
SMALL
GASTEIGER

@<TRIPOS>ATOM
      1 C         139.1616  138.2751  164.1658 C.ar    1  UNL1        0.1532
      2 C         138.3994  138.2617  165.4576 C.ar    1  UNL1        0.0573
      3 C         138.9140  139.0279  166.6401 C.ar    1  UNL1        0.0856
      4 N         138.1516  139.0145  167.9319 N.ar    1  UNL1       -0.2435
      5 C         138.6662  139.7807  169.1143 C.ar    1  UNL1        0.1045
      6 C         139.9431  140.5603  169.0049 C.ar    1  UNL1        0.0856
      7 C         140.7053  140.5737  167.7132 C.ar    1  UNL1        0.0557
      8 C         140.1908  139.8075  166.5307 C.ar    1  UNL1        0.0327
      9 C         140.9530  139.8208  165.2389 C.ar    1  UNL1        0.0203
     10 C         140.4384  139.0546  164.0565 C.ar    1  UNL1        0.0825
     11 N         141.2008  139.0680  162.7647 N.pl3   1  UNL1       -0.3023
     12 C         141.2305  140.3101  161.9242 C.3     1  UNL1        0.1082
     13 C         141.9928  140.3236  160.6325 C.3     1  UNL1        0.0938
     14 N         142.7253  139.0949  160.1810 N.3     1  UNL1       -0.2686
     15 C         143.4876  139.1083  158.8893 C.3     1  UNL1        0.0897
     16 C         142.6956  137.8528  161.0215 C.3     1  UNL1        0.0938
     17 C         141.9333  137.8394  162.3133 C.3     1  UNL1        0.1082
     18 C         140.4576  141.3265  170.1874 C.2     1  UNL1        0.2455
     19 N         140.6186  140.6420  171.5123 N.am    1  UNL1       -0.3252
     20 O         140.8113  142.7773  170.0448 O.2     1  UNL1       -0.2703
     21 H         140.3865  139.6899  171.6059 H       1  UNL1        0.1453
     22 H         140.9563  141.1449  172.2884 H       1  UNL1        0.1453
     23 N         141.9821  141.3532  167.6038 N.pl3   1  UNL1       -0.3106
     24 H         142.6513  141.3055  168.3244 H       1  UNL1        0.1523
     25 C         142.2394  142.2056  166.3966 C.ar    1  UNL1        0.0761
     26 C         143.5746  142.1567  165.7147 C.ar    1  UNL1        0.0166
     27 C         143.8319  143.0090  164.5075 C.ar    1  UNL1       -0.0028
     28 C         142.7541  143.9103  163.9822 C.ar    1  UNL1       -0.0195
     29 C         143.0114  144.7627  162.7751 C.3     1  UNL1        0.0311
     30 C         141.4189  143.9593  164.6641 C.ar    1  UNL1        0.0267
     31 C         141.1616  143.1069  165.8713 C.ar    1  UNL1        0.1531
     32 F         139.8265  143.1559  166.5532 F       1  UNL1       -0.2029
     33 O         138.6471  137.5089  162.9834 O.3     1  UNL1       -0.4742
     34 C         137.6432  139.6912  161.9937 C.3     1  UNL1        0.0512
     35 C         137.9640  138.2319  161.8607 C.3     1  UNL1        0.2056
@<TRIPOS>BOND
     1    34    35    1
     2    35    33    1
     3    33     1    1
     4     1     2   ar
     5     2     3   ar
     6     3     4   ar
     7     4     5   ar
     8     5     6   ar
     9     6    18    1
    10    18    19   am
    11    18    20    2
    12     6     7   ar
    13     7    23    1
    14    23    25    1
    15    25    26   ar
    16    26    27   ar
    17    27    28   ar
    18    28    29    1
    19    28    30   ar
    20    30    31   ar
    21    31    32    1
    22     7     8   ar
    23     8     9   ar
    24     9    10   ar
    25    10    11    1
    26    11    12    1
    27    12    13    1
    28    13    14    1
    29    14    15    1
    30    14    16    1
    31    16    17    1
    32    10     1   ar
    33    17    11    1
    34     8     3   ar
    35    31    25   ar
    36    19    21    1
    37    19    22    1
    38    23    24    1
@<TRIPOS>MOLECULE
*****
 35 38 0 0 0
SMALL
GASTEIGER

@<TRIPOS>ATOM
      1 C         139.4013  138.2438  162.6377 C.ar    1  UNL1        0.1532
      2 C         139.3240  138.0549  161.1517 C.ar    1  UNL1        0.0573
      3 C         139.0300  139.2255  160.2611 C.ar    1  UNL1        0.0856
      4 N         138.9528  139.0366  158.7750 N.ar    1  UNL1       -0.2435
      5 C         138.6587  140.2072  157.8844 C.ar    1  UNL1        0.1045
      6 C         138.4419  141.5668  158.4799 C.ar    1  UNL1        0.0856
      7 C         138.5192  141.7557  159.9660 C.ar    1  UNL1        0.0557
      8 C         138.8132  140.5851  160.8565 C.ar    1  UNL1        0.0327
      9 C         138.8905  140.7740  162.3426 C.ar    1  UNL1        0.0203
     10 C         139.1845  139.6033  163.2331 C.ar    1  UNL1        0.0825
     11 N         139.2617  139.7923  164.7192 N.pl3   1  UNL1       -0.3023
     12 C         140.3037  140.6971  165.3070 C.3     1  UNL1        0.1082
     13 C         140.3810  140.8861  166.7930 C.3     1  UNL1        0.0938
     14 N         139.4163  140.1702  167.6913 N.3     1  UNL1       -0.2686
     15 C         139.4935  140.3592  169.1773 C.3     1  UNL1        0.0897
     16 C         138.3743  139.2654  167.1035 C.3     1  UNL1        0.0938
     17 C         138.2970  139.0764  165.6174 C.3     1  UNL1        0.1082
     18 C         138.1479  142.7375  157.5894 C.2     1  UNL1        0.2455
     19 N         136.9034  142.7489  156.7521 N.am    1  UNL1       -0.3252
     20 O         139.0984  143.8967  157.5360 O.2     1  UNL1       -0.2703
     21 H         136.2795  141.9881  156.7871 H       1  UNL1        0.1453
     22 H         136.7104  143.5173  156.1676 H       1  UNL1        0.1453
     23 N         138.3024  143.1153  160.5614 N.pl3   1  UNL1       -0.3106
     24 H         137.4578  143.5945  160.3996 H       1  UNL1        0.1523
     25 C         139.3725  143.7446  161.4034 C.ar    1  UNL1        0.0761
     26 C         140.7960  143.7440  160.9308 C.ar    1  UNL1        0.0166
     27 C         141.8661  144.3734  161.7727 C.ar    1  UNL1       -0.0028
     28 C         141.5126  145.0033  163.0874 C.ar    1  UNL1       -0.0195
     29 C         142.5826  145.6326  163.9294 C.3     1  UNL1        0.0311
     30 C         140.0890  145.0038  163.5601 C.ar    1  UNL1        0.0267
     31 C         139.0189  144.3745  162.7180 C.ar    1  UNL1        0.1531
     32 F         137.5953  144.3751  163.1907 F       1  UNL1       -0.2029
     33 O         139.6953  137.0731  163.5283 O.3     1  UNL1       -0.4742
     34 C         142.1766  137.8228  163.7044 C.3     1  UNL1        0.0512
     35 C         141.0658  136.9013  164.1131 C.3     1  UNL1        0.2056
@<TRIPOS>BOND
     1    34    35    1
     2    35    33    1
     3    33     1    1
     4     1     2   ar
     5     2     3   ar
     6     3     4   ar
     7     4     5   ar
     8     5     6   ar
     9     6    18    1
    10    18    19   am
    11    18    20    2
    12     6     7   ar
    13     7    23    1
    14    23    25    1
    15    25    26   ar
    16    26    27   ar
    17    27    28   ar
    18    28    29    1
    19    28    30   ar
    20    30    31   ar
    21    31    32    1
    22     7     8   ar
    23     8     9   ar
    24     9    10   ar
    25    10    11    1
    26    11    12    1
    27    12    13    1
    28    13    14    1
    29    14    15    1
    30    14    16    1
    31    16    17    1
    32    10     1   ar
    33    17    11    1
    34     8     3   ar
    35    31    25   ar
    36    19    21    1
    37    19    22    1
    38    23    24    1
@<TRIPOS>MOLECULE
*****
 35 38 0 0 0
SMALL
GASTEIGER

@<TRIPOS>ATOM
      1 C         137.9580  140.6602  162.2096 C.ar    1  UNL1        0.1532
      2 C         137.7773  140.5204  160.7271 C.ar    1  UNL1        0.0573
      3 C         138.8193  139.8189  159.9073 C.ar    1  UNL1        0.0856
      4 N         138.6386  139.6792  158.4248 N.ar    1  UNL1       -0.2435
      5 C         139.6806  138.9776  157.6050 C.ar    1  UNL1        0.1045
      6 C         140.9034  138.4158  158.2678 C.ar    1  UNL1        0.0856
      7 C         141.0841  138.5555  159.7503 C.ar    1  UNL1        0.0557
      8 C         140.0421  139.2570  160.5700 C.ar    1  UNL1        0.0327
      9 C         140.2228  139.3968  162.0525 C.ar    1  UNL1        0.0203
     10 C         139.1807  140.0983  162.8723 C.ar    1  UNL1        0.0825
     11 N         139.3615  140.2380  164.3548 N.pl3   1  UNL1       -0.3023
     12 C         140.2749  141.2942  164.9027 C.3     1  UNL1        0.1082
     13 C         140.4557  141.4339  166.3852 C.3     1  UNL1        0.0938
     14 N         139.7231  140.5175  167.3198 N.3     1  UNL1       -0.2686
     15 C         139.9038  140.6572  168.8023 C.3     1  UNL1        0.0897
     16 C         138.8096  139.4613  166.7719 C.3     1  UNL1        0.0938
     17 C         138.6289  139.3216  165.2893 C.3     1  UNL1        0.1082
     18 C         141.9454  137.7142  157.4480 C.2     1  UNL1        0.2455
     19 N         141.5487  136.6015  156.5236 N.am    1  UNL1       -0.3252
     20 O         143.3842  138.1254  157.5527 O.2     1  UNL1       -0.2703
     21 H         140.6044  136.3317  156.4549 H       1  UNL1        0.1453
     22 H         142.2326  136.1411  155.9856 H       1  UNL1        0.1453
     23 N         142.3068  137.9937  160.4130 N.pl3   1  UNL1       -0.3106
     24 H         142.5411  137.0453  160.2908 H       1  UNL1        0.1523
     25 C         143.1726  138.8768  161.2619 C.ar    1  UNL1        0.0761
     26 C         143.5716  138.4358  162.6390 C.ar    1  UNL1        0.0166
     27 C         144.4373  139.3188  163.4879 C.ar    1  UNL1       -0.0028
     28 C         144.9040  140.6430  162.9598 C.ar    1  UNL1       -0.0195
     29 C         145.7697  141.5260  163.8087 C.3     1  UNL1        0.0311
     30 C         144.5050  141.0840  161.5827 C.ar    1  UNL1        0.0267
     31 C         143.6393  140.2009  160.7338 C.ar    1  UNL1        0.1531
     32 F         143.2403  140.6419  159.3567 F       1  UNL1       -0.2029
     33 O         136.9160  141.3617  163.0293 O.3     1  UNL1       -0.4742
     34 C         137.9031  143.7526  162.7862 C.3     1  UNL1        0.0512
     35 C         137.2048  142.7133  163.6121 C.3     1  UNL1        0.2056
@<TRIPOS>BOND
     1    34    35    1
     2    35    33    1
     3    33     1    1
     4     1     2   ar
     5     2     3   ar
     6     3     4   ar
     7     4     5   ar
     8     5     6   ar
     9     6    18    1
    10    18    19   am
    11    18    20    2
    12     6     7   ar
    13     7    23    1
    14    23    25    1
    15    25    26   ar
    16    26    27   ar
    17    27    28   ar
    18    28    29    1
    19    28    30   ar
    20    30    31   ar
    21    31    32    1
    22     7     8   ar
    23     8     9   ar
    24     9    10   ar
    25    10    11    1
    26    11    12    1
    27    12    13    1
    28    13    14    1
    29    14    15    1
    30    14    16    1
    31    16    17    1
    32    10     1   ar
    33    17    11    1
    34     8     3   ar
    35    31    25   ar
    36    19    21    1
    37    19    22    1
    38    23    24    1
@<TRIPOS>MOLECULE
*****
 35 38 0 0 0
SMALL
GASTEIGER

@<TRIPOS>ATOM
      1 C         138.5985  140.7686  162.0296 C.ar    1  UNL1        0.1532
      2 C         138.2026  141.1760  160.6414 C.ar    1  UNL1        0.0573
      3 C         138.9174  142.3040  159.9582 C.ar    1  UNL1        0.0856
      4 N         138.5215  142.7114  158.5699 N.ar    1  UNL1       -0.2435
      5 C         139.2363  143.8393  157.8868 C.ar    1  UNL1        0.1045
      6 C         140.3472  144.5598  158.5918 C.ar    1  UNL1        0.0856
      7 C         140.7431  144.1523  159.9801 C.ar    1  UNL1        0.0557
      8 C         140.0282  143.0244  160.6633 C.ar    1  UNL1        0.0327
      9 C         140.4241  142.6169  162.0515 C.ar    1  UNL1        0.0203
     10 C         139.7092  141.4890  162.7347 C.ar    1  UNL1        0.0825
     11 N         140.1052  141.0816  164.1229 N.pl3   1  UNL1       -0.3023
     12 C         141.4263  140.4118  164.3599 C.3     1  UNL1        0.1082
     13 C         141.8223  140.0044  165.7481 C.3     1  UNL1        0.0938
     14 N         140.8971  140.2666  166.8994 N.3     1  UNL1       -0.2686
     15 C         141.2931  139.8592  168.2876 C.3     1  UNL1        0.0897
     16 C         139.5760  140.9364  166.6624 C.3     1  UNL1        0.0938
     17 C         139.1801  141.3438  165.2742 C.3     1  UNL1        0.1082
     18 C         141.0620  145.6877  157.9086 C.2     1  UNL1        0.2455
     19 N         140.3014  146.6331  157.0268 N.am    1  UNL1       -0.3252
     20 O         142.5376  145.8703  158.1073 O.2     1  UNL1       -0.2703
     21 H         139.3329  146.5133  156.8964 H       1  UNL1        0.1453
     22 H         140.7706  147.3734  156.5784 H       1  UNL1        0.1453
     23 N         141.8538  144.8728  160.6851 N.pl3   1  UNL1       -0.3106
     24 H         141.9070  145.8550  160.6449 H       1  UNL1        0.1523
     25 C         142.8837  144.0967  161.4514 C.ar    1  UNL1        0.0761
     26 C         143.6605  143.0077  160.7726 C.ar    1  UNL1        0.0166
     27 C         144.6903  142.2316  161.5388 C.ar    1  UNL1       -0.0028
     28 C         144.9433  142.5445  162.9839 C.ar    1  UNL1       -0.0195
     29 C         145.9731  141.7684  163.7501 C.3     1  UNL1        0.0311
     30 C         144.1665  143.6334  163.6627 C.ar    1  UNL1        0.0267
     31 C         143.1367  144.4095  162.8964 C.ar    1  UNL1        0.1531
     32 F         142.3599  145.4985  163.5751 F       1  UNL1       -0.2029
     33 O         137.8836  139.6406  162.7128 O.3     1  UNL1       -0.4742
     34 C         139.0873  137.5965  163.7723 C.3     1  UNL1        0.0512
     35 C         138.4100  138.2407  162.5991 C.3     1  UNL1        0.2056
@<TRIPOS>BOND
     1    34    35    1
     2    35    33    1
     3    33     1    1
     4     1     2   ar
     5     2     3   ar
     6     3     4   ar
     7     4     5   ar
     8     5     6   ar
     9     6    18    1
    10    18    19   am
    11    18    20    2
    12     6     7   ar
    13     7    23    1
    14    23    25    1
    15    25    26   ar
    16    26    27   ar
    17    27    28   ar
    18    28    29    1
    19    28    30   ar
    20    30    31   ar
    21    31    32    1
    22     7     8   ar
    23     8     9   ar
    24     9    10   ar
    25    10    11    1
    26    11    12    1
    27    12    13    1
    28    13    14    1
    29    14    15    1
    30    14    16    1
    31    16    17    1
    32    10     1   ar
    33    17    11    1
    34     8     3   ar
    35    31    25   ar
    36    19    21    1
    37    19    22    1
    38    23    24    1
@<TRIPOS>MOLECULE
*****
 35 38 0 0 0
SMALL
GASTEIGER

@<TRIPOS>ATOM
      1 C         144.0315  139.7241  162.8859 C.ar    1  UNL1        0.1532
      2 C         144.2767  139.3937  161.4435 C.ar    1  UNL1        0.0573
      3 C         143.1180  139.1591  160.5203 C.ar    1  UNL1        0.0856
      4 N         143.3633  138.8286  159.0778 N.ar    1  UNL1       -0.2435
      5 C         142.2045  138.5940  158.1546 C.ar    1  UNL1        0.1045
      6 C         140.8005  138.6899  158.6739 C.ar    1  UNL1        0.0856
      7 C         140.5553  139.0203  160.1164 C.ar    1  UNL1        0.0557
      8 C         141.7140  139.2549  161.0396 C.ar    1  UNL1        0.0327
      9 C         141.4688  139.5853  162.4820 C.ar    1  UNL1        0.0203
     10 C         142.6275  139.8199  163.4052 C.ar    1  UNL1        0.0825
     11 N         142.3823  140.1504  164.8477 N.pl3   1  UNL1       -0.3023
     12 C         142.7549  139.1660  165.9164 C.3     1  UNL1        0.1082
     13 C         142.5097  139.4964  167.3588 C.3     1  UNL1        0.0938
     14 N         141.8917  140.8112  167.7326 N.3     1  UNL1       -0.2686
     15 C         141.6465  141.1416  169.1750 C.3     1  UNL1        0.0897
     16 C         141.5191  141.7955  166.6638 C.3     1  UNL1        0.0938
     17 C         141.7643  141.4651  165.2213 C.3     1  UNL1        0.1082
     18 C         139.6417  138.4553  157.7508 C.2     1  UNL1        0.2455
     19 N         139.5662  137.1902  156.9484 N.am    1  UNL1       -0.3252
     20 O         138.5584  139.4858  157.6300 O.2     1  UNL1       -0.2703
     21 H         140.2772  136.5138  157.0277 H       1  UNL1        0.1453
     22 H         138.8057  137.0363  156.3425 H       1  UNL1        0.1453
     23 N         139.1513  139.1161  160.6356 N.pl3   1  UNL1       -0.3106
     24 H         138.5223  138.3721  160.4942 H       1  UNL1        0.1523
     25 C         138.7056  140.3457  161.3703 C.ar    1  UNL1        0.0761
     26 C         138.8292  141.6927  160.7222 C.ar    1  UNL1        0.0166
     27 C         138.3835  142.9222  161.4568 C.ar    1  UNL1       -0.0028
     28 C         137.8143  142.8047  162.8397 C.ar    1  UNL1       -0.0195
     29 C         137.3687  144.0341  163.5743 C.3     1  UNL1        0.0311
     30 C         137.6908  141.4576  163.4878 C.ar    1  UNL1        0.0267
     31 C         138.1365  140.2281  162.7531 C.ar    1  UNL1        0.1531
     32 F         138.0129  138.8810  163.4013 F       1  UNL1       -0.2029
     33 O         145.1902  139.9587  163.8091 O.3     1  UNL1       -0.4742
     34 C         145.0886  142.5167  164.2518 C.3     1  UNL1        0.0512
     35 C         145.8629  141.2989  163.8428 C.3     1  UNL1        0.2056
@<TRIPOS>BOND
     1    34    35    1
     2    35    33    1
     3    33     1    1
     4     1     2   ar
     5     2     3   ar
     6     3     4   ar
     7     4     5   ar
     8     5     6   ar
     9     6    18    1
    10    18    19   am
    11    18    20    2
    12     6     7   ar
    13     7    23    1
    14    23    25    1
    15    25    26   ar
    16    26    27   ar
    17    27    28   ar
    18    28    29    1
    19    28    30   ar
    20    30    31   ar
    21    31    32    1
    22     7     8   ar
    23     8     9   ar
    24     9    10   ar
    25    10    11    1
    26    11    12    1
    27    12    13    1
    28    13    14    1
    29    14    15    1
    30    14    16    1
    31    16    17    1
    32    10     1   ar
    33    17    11    1
    34     8     3   ar
    35    31    25   ar
    36    19    21    1
    37    19    22    1
    38    23    24    1
