@<TRIPOS>MOLECULE
*****
 29 32 0 0 0
SMALL
GASTEIGER

@<TRIPOS>ATOM
      1 C         141.7971  143.8999  161.3706 C.2     1  UNL1        0.1518
      2 N         143.1667  144.4048  161.7159 N.2     1  UNL1       -0.1775
      3 C         141.1266  142.8880  162.2519 C.ar    1  UNL1        0.0237
      4 C         140.2598  143.3410  163.3891 C.ar    1  UNL1        0.0030
      5 C         139.5893  142.3291  164.2703 C.ar    1  UNL1        0.0184
      6 C         139.7858  140.8642  164.0143 C.ar    1  UNL1        0.1056
      7 C         140.6526  140.4112  162.8771 C.ar    1  UNL1        0.0184
      8 C         141.3230  141.4231  161.9959 C.ar    1  UNL1        0.0030
      9 S         139.1153  139.8523  164.8956 S.O2    1  UNL1        0.0070
     10 O         140.1073  140.1418  165.9827 O.2     1  UNL1       -0.1687
     11 O         138.1232  139.5627  163.8084 O.2     1  UNL1       -0.1687
     12 C         138.4449  138.8404  165.7768 C.3     1  UNL1        0.1339
     13 C         138.1108  137.4132  166.0950 C.3     1  UNL1        0.0257
     14 C         137.6177  138.5152  166.9851 C.3     1  UNL1        0.0257
     15 N         143.8658  143.8979  162.9424 N.pl3   1  UNL1       -0.2327
     16 C         143.8040  144.5116  164.3096 C.3     1  UNL1        0.1110
     17 C         144.6495  143.6812  165.2292 C.3     1  UNL1        0.0250
     18 C         145.2339  142.5541  164.4302 C.3     1  UNL1        0.0250
     19 C         144.7496  142.6881  163.0169 C.3     1  UNL1        0.1110
     20 N         141.8555  145.2055  159.1251 N.am    1  UNL1       -0.2579
     21 C         141.0980  144.4068  160.1442 C.2     1  UNL1        0.2702
     22 O         139.6413  144.1151  159.9367 O.2     1  UNL1       -0.2681
     23 H         142.8115  145.3969  159.2613 H       1  UNL1        0.1572
     24 C         140.6671  146.2261  154.0827 C.3     1  UNL1        0.0614
     25 C         140.6101  146.1815  155.5809 C.ar    1  UNL1        0.1127
     26 N         139.5508  146.8035  156.4419 N.ar    1  UNL1       -0.1440
     27 N         139.8885  146.5135  157.8743 N.ar    1  UNL1       -0.1256
     28 C         141.1564  145.7124  157.8987 C.ar    1  UNL1        0.1880
     29 S         141.6023  145.5072  156.4813 S.2     1  UNL1       -0.0347
@<TRIPOS>BOND
     1    24    25    1
     2    25    26   ar
     3    26    27   ar
     4    27    28   ar
     5    28    20    1
     6    20    21   am
     7    21    22    2
     8    21     1    1
     9     1     2    2
    10     2    15    1
    11    15    16    1
    12    16    17    1
    13    17    18    1
    14    18    19    1
    15     1     3    1
    16     3     4   ar
    17     4     5   ar
    18     5     6   ar
    19     6     9    1
    20     9    10    2
    21     9    11    2
    22     9    12    1
    23    12    13    1
    24    13    14    1
    25     6     7   ar
    26     7     8   ar
    27    28    29   ar
    28    29    25   ar
    29    19    15    1
    30     8     3   ar
    31    14    12    1
    32    20    23    1
@<TRIPOS>MOLECULE
*****
 29 32 0 0 0
SMALL
GASTEIGER

@<TRIPOS>ATOM
      1 C         142.5603  139.6638  170.0779 C.2     1  UNL1        0.1518
      2 N         142.4556  140.7862  171.0675 N.2     1  UNL1       -0.1775
      3 C         141.7656  139.7084  168.8065 C.ar    1  UNL1        0.0237
      4 C         142.4688  139.6949  167.4816 C.ar    1  UNL1        0.0030
      5 C         141.6740  139.7394  166.2103 C.ar    1  UNL1        0.0184
      6 C         140.1761  139.7975  166.2638 C.ar    1  UNL1        0.1056
      7 C         139.4729  139.8110  167.5886 C.ar    1  UNL1        0.0184
      8 C         140.2677  139.7664  168.8600 C.ar    1  UNL1        0.0030
      9 S         139.3814  139.8420  164.9923 S.O2    1  UNL1        0.0070
     10 O         138.1532  139.4248  165.7455 O.2     1  UNL1       -0.1687
     11 O         140.6096  140.2593  164.2392 O.2     1  UNL1       -0.1687
     12 C         138.5866  139.8866  163.7210 C.3     1  UNL1        0.1339
     13 C         138.1008  139.2191  162.4687 C.3     1  UNL1        0.0257
     14 C         137.6959  140.6313  162.7713 C.3     1  UNL1        0.0257
     15 N         141.5561  141.9531  170.7857 N.pl3   1  UNL1       -0.2327
     16 C         141.8963  143.1444  169.9401 C.3     1  UNL1        0.1110
     17 C         140.7090  144.0611  169.9318 C.3     1  UNL1        0.0250
     18 C         139.6350  143.4363  170.7723 C.3     1  UNL1        0.0250
     19 C         140.1586  142.1335  171.3000 C.3     1  UNL1        0.1110
     20 N         144.2842  138.4708  171.6126 N.am    1  UNL1       -0.2579
     21 C         143.4597  138.4969  170.3597 C.2     1  UNL1        0.2702
     22 O         143.5347  137.3561  169.3886 O.2     1  UNL1       -0.2681
     23 H         144.2350  139.2196  172.2499 H       1  UNL1        0.1572
     24 C         146.0294  133.7362  173.1678 C.3     1  UNL1        0.0614
     25 C         145.9858  135.1277  172.6092 C.ar    1  UNL1        0.1127
     26 N         147.1495  135.8889  172.0467 N.ar    1  UNL1       -0.1440
     27 N         146.6537  137.2339  171.6049 N.ar    1  UNL1       -0.1256
     28 C         145.1836  137.3039  171.8943 C.ar    1  UNL1        0.1880
     29 S         144.7708  136.0022  172.5150 S.2     1  UNL1       -0.0347
@<TRIPOS>BOND
     1    24    25    1
     2    25    26   ar
     3    26    27   ar
     4    27    28   ar
     5    28    20    1
     6    20    21   am
     7    21    22    2
     8    21     1    1
     9     1     2    2
    10     2    15    1
    11    15    16    1
    12    16    17    1
    13    17    18    1
    14    18    19    1
    15     1     3    1
    16     3     4   ar
    17     4     5   ar
    18     5     6   ar
    19     6     9    1
    20     9    10    2
    21     9    11    2
    22     9    12    1
    23    12    13    1
    24    13    14    1
    25     6     7   ar
    26     7     8   ar
    27    28    29   ar
    28    29    25   ar
    29    19    15    1
    30     8     3   ar
    31    14    12    1
    32    20    23    1
@<TRIPOS>MOLECULE
*****
 29 32 0 0 0
SMALL
GASTEIGER

@<TRIPOS>ATOM
      1 C         143.4221  140.1613  160.4378 C.2     1  UNL1        0.1518
      2 N         144.4702  141.1994  160.7094 N.2     1  UNL1       -0.1775
      3 C         142.4521  139.7751  161.5149 C.ar    1  UNL1        0.0237
      4 C         141.1522  140.5108  161.6526 C.ar    1  UNL1        0.0030
      5 C         140.1823  140.1245  162.7297 C.ar    1  UNL1        0.0184
      6 C         140.5124  139.0027  163.6691 C.ar    1  UNL1        0.1056
      7 C         141.8123  138.2670  163.5314 C.ar    1  UNL1        0.0184
      8 C         142.7821  138.6532  162.4543 C.ar    1  UNL1        0.0030
      9 S         139.5424  138.6165  164.7462 S.O2    1  UNL1        0.0070
     10 O         140.6019  138.8467  165.7827 O.2     1  UNL1       -0.1687
     11 O         138.4829  138.3862  163.7097 O.2     1  UNL1       -0.1687
     12 C         138.5725  138.2303  165.8233 C.3     1  UNL1        0.1339
     13 C         137.7615  137.1826  166.5263 C.3     1  UNL1        0.0257
     14 C         137.7037  138.6093  166.9859 C.3     1  UNL1        0.0257
     15 N         144.5484  141.8513  162.0581 N.pl3   1  UNL1       -0.2327
     16 C         145.3651  141.3739  163.2222 C.3     1  UNL1        0.1110
     17 C         145.1450  142.3226  164.3630 C.3     1  UNL1        0.0250
     18 C         144.1922  143.3864  163.9040 C.3     1  UNL1        0.0250
     19 C         143.8235  143.0951  162.4796 C.3     1  UNL1        0.1110
     20 N         142.2771  138.4930  158.8081 N.am    1  UNL1       -0.2579
     21 C         143.3439  139.5094  159.0892 C.2     1  UNL1        0.2702
     22 O         144.3324  139.8739  158.0215 O.2     1  UNL1       -0.2681
     23 H         141.6282  138.2538  159.5089 H       1  UNL1        0.1572
     24 C         142.9609  135.0927  154.8268 C.3     1  UNL1        0.0614
     25 C         142.5132  136.2781  155.6295 C.ar    1  UNL1        0.1127
     26 N         141.6438  137.3977  155.1388 N.ar    1  UNL1       -0.1440
     27 N         141.4495  138.3636  156.2698 N.ar    1  UNL1       -0.1256
     28 C         142.1989  137.8411  157.4595 C.ar    1  UNL1        0.1880
     29 S         142.8562  136.5522  157.0638 S.2     1  UNL1       -0.0347
@<TRIPOS>BOND
     1    24    25    1
     2    25    26   ar
     3    26    27   ar
     4    27    28   ar
     5    28    20    1
     6    20    21   am
     7    21    22    2
     8    21     1    1
     9     1     2    2
    10     2    15    1
    11    15    16    1
    12    16    17    1
    13    17    18    1
    14    18    19    1
    15     1     3    1
    16     3     4   ar
    17     4     5   ar
    18     5     6   ar
    19     6     9    1
    20     9    10    2
    21     9    11    2
    22     9    12    1
    23    12    13    1
    24    13    14    1
    25     6     7   ar
    26     7     8   ar
    27    28    29   ar
    28    29    25   ar
    29    19    15    1
    30     8     3   ar
    31    14    12    1
    32    20    23    1
@<TRIPOS>MOLECULE
*****
 29 32 0 0 0
SMALL
GASTEIGER

@<TRIPOS>ATOM
      1 C         140.1358  139.3612  159.0318 C.2     1  UNL1        0.1518
      2 N         141.5798  139.2531  158.6403 N.2     1  UNL1       -0.1775
      3 C         139.7408  139.2634  160.4756 C.ar    1  UNL1        0.0237
      4 C         139.9578  140.4300  161.3931 C.ar    1  UNL1        0.0030
      5 C         139.5627  140.3323  162.8368 C.ar    1  UNL1        0.0184
      6 C         138.9508  139.0679  163.3630 C.ar    1  UNL1        0.1056
      7 C         138.7339  137.9013  162.4455 C.ar    1  UNL1        0.0184
      8 C         139.1289  137.9991  161.0018 C.ar    1  UNL1        0.0030
      9 S         138.5558  138.9702  164.8068 S.O2    1  UNL1        0.0070
     10 O         139.1068  137.5762  164.8632 O.2     1  UNL1       -0.1687
     11 O         138.0047  140.3641  164.7504 O.2     1  UNL1       -0.1687
     12 C         138.1608  138.8724  166.2505 C.3     1  UNL1        0.1339
     13 C         137.3371  138.2382  167.3319 C.3     1  UNL1        0.0257
     14 C         138.3004  139.3373  167.6698 C.3     1  UNL1        0.0257
     15 N         142.6288  139.0472  159.6927 N.pl3   1  UNL1       -0.2327
     16 C         143.0221  137.7335  160.3005 C.3     1  UNL1        0.1110
     17 C         144.1049  137.9933  161.3054 C.3     1  UNL1        0.0250
     18 C         144.3809  139.4677  161.3187 C.3     1  UNL1        0.0250
     19 C         143.4686  140.1190  160.3220 C.3     1  UNL1        0.1110
     20 N         138.1890  140.7671  158.0402 N.am    1  UNL1       -0.2579
     21 C         139.0869  139.5670  157.9795 C.2     1  UNL1        0.2702
     22 O         138.9358  138.5728  156.8666 O.2     1  UNL1       -0.2681
     23 H         138.2882  141.4197  158.7706 H       1  UNL1        0.1572
     24 C         135.7098  142.3950  153.6716 C.3     1  UNL1        0.0614
     25 C         136.0005  141.7212  154.9799 C.ar    1  UNL1        0.1127
     26 N         135.0513  140.8582  155.7573 N.ar    1  UNL1       -0.1440
     27 N         135.7556  140.3958  156.9983 N.ar    1  UNL1       -0.1256
     28 C         137.1401  140.9729  156.9879 C.ar    1  UNL1        0.1880
     29 S         137.2914  141.7921  155.7404 S.2     1  UNL1       -0.0347
@<TRIPOS>BOND
     1    24    25    1
     2    25    26   ar
     3    26    27   ar
     4    27    28   ar
     5    28    20    1
     6    20    21   am
     7    21    22    2
     8    21     1    1
     9     1     2    2
    10     2    15    1
    11    15    16    1
    12    16    17    1
    13    17    18    1
    14    18    19    1
    15     1     3    1
    16     3     4   ar
    17     4     5   ar
    18     5     6   ar
    19     6     9    1
    20     9    10    2
    21     9    11    2
    22     9    12    1
    23    12    13    1
    24    13    14    1
    25     6     7   ar
    26     7     8   ar
    27    28    29   ar
    28    29    25   ar
    29    19    15    1
    30     8     3   ar
    31    14    12    1
    32    20    23    1
@<TRIPOS>MOLECULE
*****
 29 32 0 0 0
SMALL
GASTEIGER

@<TRIPOS>ATOM
      1 C         140.2306  140.4690  161.9705 C.2     1  UNL1        0.1518
      2 N         139.4323  141.6752  161.5735 N.2     1  UNL1       -0.1775
      3 C         140.6613  140.2907  163.3963 C.ar    1  UNL1        0.0237
      4 C         139.7571  139.5972  164.3718 C.ar    1  UNL1        0.0030
      5 C         140.1878  139.4190  165.7975 C.ar    1  UNL1        0.0184
      6 C         141.5227  139.9341  166.2477 C.ar    1  UNL1        0.1056
      7 C         142.4269  140.6275  165.2722 C.ar    1  UNL1        0.0184
      8 C         141.9961  140.8058  163.8466 C.ar    1  UNL1        0.0030
      9 S         141.9534  139.7558  167.6735 S.O2    1  UNL1        0.0070
     10 O         143.1899  139.0439  167.2109 O.2     1  UNL1       -0.1687
     11 O         140.7168  140.4678  168.1361 O.2     1  UNL1       -0.1687
     12 C         142.3841  139.5775  169.0992 C.3     1  UNL1        0.1339
     13 C         142.6466  138.6837  170.2748 C.3     1  UNL1        0.0257
     14 C         142.8676  140.1625  170.3930 C.3     1  UNL1        0.0257
     15 N         139.0647  142.7032  162.6022 N.pl3   1  UNL1       -0.2327
     16 C         139.8950  143.8868  163.0018 C.3     1  UNL1        0.1110
     17 C         139.1457  144.6431  164.0585 C.3     1  UNL1        0.0250
     18 C         137.8523  143.9269  164.3120 C.3     1  UNL1        0.0250
     19 C         137.8023  142.7280  163.4120 C.3     1  UNL1        0.1110
     20 N         141.3713  139.8444  159.7214 N.am    1  UNL1       -0.2579
     21 C         140.5982  139.4410  160.9419 C.2     1  UNL1        0.2702
     22 O         140.1926  138.0097  161.1337 O.2     1  UNL1       -0.2681
     23 H         141.6375  140.7838  159.5955 H       1  UNL1        0.1572
     24 C         141.0734  136.4270  155.7072 C.3     1  UNL1        0.0614
     25 C         141.6020  137.2457  156.8476 C.ar    1  UNL1        0.1127
     26 N         143.0073  137.2236  157.3719 N.ar    1  UNL1       -0.1440
     27 N         143.0918  138.1944  158.5123 N.ar    1  UNL1       -0.1256
     28 C         141.7389  138.8165  158.6927 C.ar    1  UNL1        0.1880
     29 S         140.8182  138.2301  157.6639 S.2     1  UNL1       -0.0347
@<TRIPOS>BOND
     1    24    25    1
     2    25    26   ar
     3    26    27   ar
     4    27    28   ar
     5    28    20    1
     6    20    21   am
     7    21    22    2
     8    21     1    1
     9     1     2    2
    10     2    15    1
    11    15    16    1
    12    16    17    1
    13    17    18    1
    14    18    19    1
    15     1     3    1
    16     3     4   ar
    17     4     5   ar
    18     5     6   ar
    19     6     9    1
    20     9    10    2
    21     9    11    2
    22     9    12    1
    23    12    13    1
    24    13    14    1
    25     6     7   ar
    26     7     8   ar
    27    28    29   ar
    28    29    25   ar
    29    19    15    1
    30     8     3   ar
    31    14    12    1
    32    20    23    1
@<TRIPOS>MOLECULE
*****
 29 32 0 0 0
SMALL
GASTEIGER

@<TRIPOS>ATOM
      1 C         138.3764  141.6676  161.1042 C.2     1  UNL1        0.1518
      2 N         137.7874  143.0028  161.4511 N.2     1  UNL1       -0.1775
      3 C         139.4108  141.0492  161.9973 C.ar    1  UNL1        0.0237
      4 C         138.9889  140.1693  163.1364 C.ar    1  UNL1        0.0030
      5 C         140.0233  139.5510  164.0295 C.ar    1  UNL1        0.0184
      6 C         141.4797  139.8126  163.7835 C.ar    1  UNL1        0.1056
      7 C         141.9016  140.6926  162.6444 C.ar    1  UNL1        0.0184
      8 C         140.8672  141.3109  161.7513 C.ar    1  UNL1        0.0030
      9 S         142.5141  139.1943  164.6766 S.O2    1  UNL1        0.0070
     10 O         141.9415  137.8360  164.3994 O.2     1  UNL1       -0.1687
     11 O         143.0868  140.5526  164.9539 O.2     1  UNL1       -0.1687
     12 C         143.5485  138.5759  165.5697 C.3     1  UNL1        0.1339
     13 C         143.9020  137.7803  166.7912 C.3     1  UNL1        0.0257
     14 C         144.9866  138.3006  165.8952 C.3     1  UNL1        0.0257
     15 N         138.2329  143.7196  162.6911 N.pl3   1  UNL1       -0.2327
     16 C         139.4287  144.6175  162.8091 C.3     1  UNL1        0.1110
     17 C         139.4956  145.1172  164.2218 C.3     1  UNL1        0.0250
     18 C         138.3412  144.5282  164.9770 C.3     1  UNL1        0.0250
     19 C         137.5608  143.6645  164.0310 C.3     1  UNL1        0.1110
     20 N         138.1483  141.5752  158.5177 N.am    1  UNL1       -0.2579
     21 C         137.9310  140.9507  159.8642 C.2     1  UNL1        0.2702
     22 O         137.2681  139.6093  159.9705 O.2     1  UNL1       -0.2681
     23 H         138.5834  142.4556  158.4479 H       1  UNL1        0.1572
     24 C         135.4204  140.2270  154.2025 C.3     1  UNL1        0.0614
     25 C         136.4490  140.2387  155.2942 C.ar    1  UNL1        0.1127
     26 N         137.5859  139.2717  155.4449 N.ar    1  UNL1       -0.1440
     27 N         138.3608  139.6548  156.6707 N.ar    1  UNL1       -0.1256
     28 C         137.7029  140.8584  157.2777 C.ar    1  UNL1        0.1880
     29 S         136.5213  141.2192  156.4270 S.2     1  UNL1       -0.0347
@<TRIPOS>BOND
     1    24    25    1
     2    25    26   ar
     3    26    27   ar
     4    27    28   ar
     5    28    20    1
     6    20    21   am
     7    21    22    2
     8    21     1    1
     9     1     2    2
    10     2    15    1
    11    15    16    1
    12    16    17    1
    13    17    18    1
    14    18    19    1
    15     1     3    1
    16     3     4   ar
    17     4     5   ar
    18     5     6   ar
    19     6     9    1
    20     9    10    2
    21     9    11    2
    22     9    12    1
    23    12    13    1
    24    13    14    1
    25     6     7   ar
    26     7     8   ar
    27    28    29   ar
    28    29    25   ar
    29    19    15    1
    30     8     3   ar
    31    14    12    1
    32    20    23    1
@<TRIPOS>MOLECULE
*****
 29 32 0 0 0
SMALL
GASTEIGER

@<TRIPOS>ATOM
      1 C         142.3036  138.9617  159.2186 C.2     1  UNL1        0.1518
      2 N         143.2578  140.1083  159.0611 N.2     1  UNL1       -0.1775
      3 C         141.5410  138.7911  160.4991 C.ar    1  UNL1        0.0237
      4 C         140.2670  139.5512  160.7202 C.ar    1  UNL1        0.0030
      5 C         139.5045  139.3806  162.0006 C.ar    1  UNL1        0.0184
      6 C         140.0161  138.4498  163.0599 C.ar    1  UNL1        0.1056
      7 C         141.2901  137.6897  162.8387 C.ar    1  UNL1        0.0184
      8 C         142.0526  137.8604  161.5583 C.ar    1  UNL1        0.0030
      9 S         139.2535  138.2792  164.3403 S.O2    1  UNL1        0.0070
     10 O         140.2881  137.3084  164.8271 O.2     1  UNL1       -0.1687
     11 O         138.2188  139.2501  163.8535 O.2     1  UNL1       -0.1687
     12 C         138.4910  138.1086  165.6207 C.3     1  UNL1        0.1339
     13 C         137.7141  137.2387  166.5639 C.3     1  UNL1        0.0257
     14 C         137.9472  138.6830  166.8952 C.3     1  UNL1        0.0257
     15 N         143.4495  141.0843  160.1840 N.pl3   1  UNL1       -0.2327
     16 C         144.3510  140.8996  161.3685 C.3     1  UNL1        0.1110
     17 C         144.2319  142.1174  162.2361 C.3     1  UNL1        0.0250
     18 C         143.2567  143.0549  161.5877 C.3     1  UNL1        0.0250
     19 C         142.7732  142.4163  160.3195 C.3     1  UNL1        0.1110
     20 N         143.2878  137.2328  157.5476 N.am    1  UNL1       -0.2579
     21 C         142.1119  137.9858  158.0958 C.2     1  UNL1        0.2702
     22 O         140.7444  137.7628  157.5211 O.2     1  UNL1       -0.2681
     23 H         144.1853  137.3792  157.9248 H       1  UNL1        0.1572
     24 C         143.0028  132.7341  154.7979 C.3     1  UNL1        0.0614
     25 C         142.9651  134.1890  155.1609 C.ar    1  UNL1        0.1127
     26 N         142.6372  135.3211  154.2330 N.ar    1  UNL1       -0.1440
     27 N         142.7182  136.5990  155.0141 N.ar    1  UNL1       -0.1256
     28 C         143.0961  136.2569  156.4248 C.ar    1  UNL1        0.1880
     29 S         143.2488  134.7674  156.5155 S.2     1  UNL1       -0.0347
@<TRIPOS>BOND
     1    24    25    1
     2    25    26   ar
     3    26    27   ar
     4    27    28   ar
     5    28    20    1
     6    20    21   am
     7    21    22    2
     8    21     1    1
     9     1     2    2
    10     2    15    1
    11    15    16    1
    12    16    17    1
    13    17    18    1
    14    18    19    1
    15     1     3    1
    16     3     4   ar
    17     4     5   ar
    18     5     6   ar
    19     6     9    1
    20     9    10    2
    21     9    11    2
    22     9    12    1
    23    12    13    1
    24    13    14    1
    25     6     7   ar
    26     7     8   ar
    27    28    29   ar
    28    29    25   ar
    29    19    15    1
    30     8     3   ar
    31    14    12    1
    32    20    23    1
@<TRIPOS>MOLECULE
*****
 29 32 0 0 0
SMALL
GASTEIGER

@<TRIPOS>ATOM
      1 C         143.5062  141.0921  160.9378 C.2     1  UNL1        0.1518
      2 N         144.2316  142.3857  161.1626 N.2     1  UNL1       -0.1775
      3 C         142.5221  140.5973  161.9560 C.ar    1  UNL1        0.0237
      4 C         142.9547  139.6103  162.9994 C.ar    1  UNL1        0.0030
      5 C         141.9705  139.1156  164.0176 C.ar    1  UNL1        0.0184
      6 C         140.5538  139.6079  163.9924 C.ar    1  UNL1        0.1056
      7 C         140.1213  140.5949  162.9490 C.ar    1  UNL1        0.0184
      8 C         141.1054  141.0896  161.9309 C.ar    1  UNL1        0.0030
      9 S         139.5697  139.1132  165.0106 S.O2    1  UNL1        0.0070
     10 O         140.6825  138.9381  166.0010 O.2     1  UNL1       -0.1687
     11 O         138.4569  139.2883  164.0202 O.2     1  UNL1       -0.1687
     12 C         138.5856  138.6184  166.0289 C.3     1  UNL1        0.1339
     13 C         137.7880  137.4978  166.6271 C.3     1  UNL1        0.0257
     14 C         137.6789  138.8822  167.1943 C.3     1  UNL1        0.0257
     15 N         143.9728  143.1845  162.4056 N.pl3   1  UNL1       -0.2327
     16 C         144.5777  142.9357  163.7554 C.3     1  UNL1        0.1110
     17 C         144.0424  143.9698  164.7010 C.3     1  UNL1        0.0250
     18 C         143.1066  144.8577  163.9355 C.3     1  UNL1        0.0250
     19 C         143.0636  144.3724  162.5169 C.3     1  UNL1        0.1110
     20 N         143.6504  140.9436  158.3480 N.am    1  UNL1       -0.2579
     21 C         143.7650  140.2933  159.6949 C.2     1  UNL1        0.2702
     22 O         144.1383  138.8442  159.7988 O.2     1  UNL1       -0.2681
     23 H         143.4054  141.8947  158.2798 H       1  UNL1        0.1572
     24 C         142.9120  138.0408  153.9995 C.3     1  UNL1        0.0614
     25 C         143.5697  138.8105  155.1062 C.ar    1  UNL1        0.1127
     26 N         145.0450  139.0205  155.2784 N.ar    1  UNL1       -0.1440
     27 N         145.2547  139.8452  156.5137 N.ar    1  UNL1       -0.1256
     28 C         143.9092  140.1448  157.1050 C.ar    1  UNL1        0.1880
     29 S         142.8678  139.5053  156.2352 S.2     1  UNL1       -0.0347
@<TRIPOS>BOND
     1    24    25    1
     2    25    26   ar
     3    26    27   ar
     4    27    28   ar
     5    28    20    1
     6    20    21   am
     7    21    22    2
     8    21     1    1
     9     1     2    2
    10     2    15    1
    11    15    16    1
    12    16    17    1
    13    17    18    1
    14    18    19    1
    15     1     3    1
    16     3     4   ar
    17     4     5   ar
    18     5     6   ar
    19     6     9    1
    20     9    10    2
    21     9    11    2
    22     9    12    1
    23    12    13    1
    24    13    14    1
    25     6     7   ar
    26     7     8   ar
    27    28    29   ar
    28    29    25   ar
    29    19    15    1
    30     8     3   ar
    31    14    12    1
    32    20    23    1
@<TRIPOS>MOLECULE
*****
 29 32 0 0 0
SMALL
GASTEIGER

@<TRIPOS>ATOM
      1 C         141.7752  138.6810  157.9317 C.2     1  UNL1        0.1518
      2 N         140.9970  139.8122  157.3276 N.2     1  UNL1       -0.1775
      3 C         142.0500  138.6630  159.4063 C.ar    1  UNL1        0.0237
      4 C         140.9718  138.2535  160.3652 C.ar    1  UNL1        0.0030
      5 C         141.2467  138.2356  161.8397 C.ar    1  UNL1        0.0184
      6 C         142.5998  138.6271  162.3552 C.ar    1  UNL1        0.1056
      7 C         143.6781  139.0366  161.3962 C.ar    1  UNL1        0.0184
      8 C         143.4032  139.0545  159.9218 C.ar    1  UNL1        0.0030
      9 S         142.8747  138.6091  163.8297 S.O2    1  UNL1        0.0070
     10 O         141.7216  137.6715  164.0332 O.2     1  UNL1       -0.1687
     11 O         144.0278  139.5466  163.6263 O.2     1  UNL1       -0.1687
     12 C         143.1495  138.5910  165.3042 C.3     1  UNL1        0.1339
     13 C         143.8803  138.0187  166.4825 C.3     1  UNL1        0.0257
     14 C         142.8947  139.1322  166.6798 C.3     1  UNL1        0.0257
     15 N         140.4938  140.9254  158.1981 N.pl3   1  UNL1       -0.2327
     16 C         139.1201  141.0284  158.7916 C.3     1  UNL1        0.1110
     17 C         139.0532  142.2976  159.5882 C.3     1  UNL1        0.0250
     18 C         140.3857  142.9792  159.4869 C.3     1  UNL1        0.0250
     19 C         141.2759  142.1311  158.6278 C.3     1  UNL1        0.1110
     20 N         141.3566  136.4550  156.6591 N.am    1  UNL1       -0.2579
     21 C         142.2784  137.5679  157.0614 C.2     1  UNL1        0.2702
     22 O         143.7035  137.5676  156.5932 O.2     1  UNL1       -0.2681
     23 H         140.4213  136.4551  156.9664 H       1  UNL1        0.1572
     24 C         143.6415  131.9713  155.0603 C.3     1  UNL1        0.0614
     25 C         142.9101  133.2808  155.0538 C.ar    1  UNL1        0.1127
     26 N         142.3584  133.9768  153.8449 N.ar    1  UNL1       -0.1440
     27 N         141.7093  135.2505  154.2992 N.ar    1  UNL1       -0.1256
     28 C         141.8598  135.3418  155.7888 C.ar    1  UNL1        0.1880
     29 S         142.6019  134.1245  156.2552 S.2     1  UNL1       -0.0347
@<TRIPOS>BOND
     1    24    25    1
     2    25    26   ar
     3    26    27   ar
     4    27    28   ar
     5    28    20    1
     6    20    21   am
     7    21    22    2
     8    21     1    1
     9     1     2    2
    10     2    15    1
    11    15    16    1
    12    16    17    1
    13    17    18    1
    14    18    19    1
    15     1     3    1
    16     3     4   ar
    17     4     5   ar
    18     5     6   ar
    19     6     9    1
    20     9    10    2
    21     9    11    2
    22     9    12    1
    23    12    13    1
    24    13    14    1
    25     6     7   ar
    26     7     8   ar
    27    28    29   ar
    28    29    25   ar
    29    19    15    1
    30     8     3   ar
    31    14    12    1
    32    20    23    1
