@<TRIPOS>MOLECULE
*****
 45 48 0 0 0
SMALL
GASTEIGER

@<TRIPOS>ATOM
      1 C         142.1952  141.0800  163.5787 C.3     1  UNL1        0.0779
      2 C         142.0624  141.2802  165.0594 C.ar    1  UNL1        0.0373
      3 C         140.8876  140.7030  165.7918 C.ar    1  UNL1        0.0023
      4 C         140.7548  140.9032  167.2725 C.ar    1  UNL1        0.0183
      5 C         139.5799  140.3260  168.0050 C.ar    1  UNL1        0.0118
      6 C         139.4472  140.5262  169.4856 C.ar    1  UNL1        0.0685
      7 C         140.4893  141.3036  170.2337 C.ar    1  UNL1        0.0118
      8 C         141.6642  141.8808  169.5013 C.ar    1  UNL1        0.0199
      9 C         141.7969  141.6806  168.0207 C.ar    1  UNL1        0.0844
     10 N         142.9718  142.2578  167.2881 N.ar    1  UNL1       -0.2119
     11 C         143.1045  142.0576  165.8075 C.ar    1  UNL1        0.2211
     12 C         138.2723  139.9491  170.2182 C.1     1  UNL1        0.1004
     13 N         137.0975  139.3719  170.9506 N.1     1  UNL1       -0.1908
     14 O         144.2794  142.6347  165.0749 O.3     1  UNL1       -0.4563
     15 C         144.2418  144.0569  164.5994 C.3     1  UNL1        0.2542
     16 C         141.7234  142.1441  162.6327 C.ar    1  UNL1       -0.0064
     17 C         140.3900  142.7978  162.8439 C.ar    1  UNL1        0.0540
     18 C         139.9181  143.8620  161.8979 C.ar    1  UNL1        0.2272
     19 N         140.7796  144.2725  160.7407 N.ar    1  UNL1       -0.1767
     20 C         142.1131  143.6187  160.5295 C.ar    1  UNL1        0.2270
     21 C         142.5850  142.5546  161.4755 C.ar    1  UNL1        0.0540
     22 O         138.5846  144.5156  162.1091 O.3     1  UNL1       -0.4561
     23 C         137.6285  144.2717  163.2390 C.3     1  UNL1        0.2542
     24 O         142.9747  144.0292  159.3722 O.3     1  UNL1       -0.4640
     25 C         142.3616  144.2463  158.0206 C.3     1  UNL1        0.1678
     26 C         141.9925  143.0696  157.1667 C.3     1  UNL1        0.0473
     27 C         142.1175  145.6401  157.5228 C.3     1  UNL1        0.0473
     28 C         142.7999  139.8156  163.0440 C.3     1  UNL1        0.1161
     29 O         144.1697  140.4094  163.1890 O.3     1  UNL1       -0.3820
     30 H         144.8336  139.7666  162.8943 H       1  UNL1        0.2107
     31 C         139.4710  137.8200  163.8721 C.ar    1  UNL1        0.2272
     32 C         140.8408  138.4138  164.0170 C.ar    1  UNL1        0.0559
     33 C         141.4300  139.2218  162.8991 C.ar    1  UNL1        0.0117
     34 C         140.6495  139.4361  161.6363 C.ar    1  UNL1        0.0559
     35 C         139.2797  138.8423  161.4914 C.ar    1  UNL1        0.2272
     36 N         138.6904  138.0342  162.6093 N.ar    1  UNL1       -0.1767
     37 C         138.1476  137.6968  166.1045 C.3     1  UNL1        0.2542
     38 O         138.8817  137.0119  164.9901 O.3     1  UNL1       -0.4561
     39 O         138.4991  139.0566  160.2285 O.3     1  UNL1       -0.4561
     40 C         137.3766  140.0284  160.0149 C.3     1  UNL1        0.2542
     41 C         143.4045  138.5513  162.5094 C.3     1  UNL1        0.0491
     42 C         144.2738  138.5938  161.2878 C.3     1  UNL1        0.0750
     43 N         143.6574  138.7957  159.9353 N.3     1  UNL1       -0.2702
     44 C         142.8291  137.7078  159.3185 C.3     1  UNL1        0.0897
     45 C         143.8692  140.0856  159.1996 C.3     1  UNL1        0.0897
@<TRIPOS>BOND
     1    37    38    1
     2    38    31    1
     3    31    32   ar
     4    32    33   ar
     5    33    28    1
     6    28    29    1
     7    28    41    1
     8    41    42    1
     9    42    43    1
    10    43    44    1
    11    43    45    1
    12    28     1    1
    13     1    16    1
    14    16    17   ar
    15    17    18   ar
    16    18    22    1
    17    22    23    1
    18    18    19   ar
    19    19    20   ar
    20    20    24    1
    21    24    25    1
    22    25    26    1
    23    25    27    1
    24    20    21   ar
    25     1     2    1
    26     2     3   ar
    27     3     4   ar
    28     4     5   ar
    29     5     6   ar
    30     6    12    1
    31    12    13    3
    32     6     7   ar
    33     7     8   ar
    34     8     9   ar
    35     9    10   ar
    36    10    11   ar
    37    11    14    1
    38    14    15    1
    39    33    34   ar
    40    34    35   ar
    41    35    39    1
    42    39    40    1
    43    35    36   ar
    44    36    31   ar
    45    21    16   ar
    46    11     2   ar
    47     9     4   ar
    48    29    30    1
@<TRIPOS>MOLECULE
*****
 45 48 0 0 0
SMALL
GASTEIGER

@<TRIPOS>ATOM
      1 C         142.1615  141.1991  163.3032 C.3     1  UNL1        0.0779
      2 C         142.0865  141.3734  164.7913 C.ar    1  UNL1        0.0373
      3 C         140.9251  140.8097  165.5549 C.ar    1  UNL1        0.0023
      4 C         140.8502  140.9840  167.0429 C.ar    1  UNL1        0.0183
      5 C         139.6888  140.4203  167.8066 C.ar    1  UNL1        0.0118
      6 C         139.6139  140.5946  169.2945 C.ar    1  UNL1        0.0685
      7 C         140.7004  141.3328  170.0187 C.ar    1  UNL1        0.0118
      8 C         141.8619  141.8965  169.2551 C.ar    1  UNL1        0.0199
      9 C         141.9367  141.7222  167.7672 C.ar    1  UNL1        0.0844
     10 N         143.0982  142.2859  167.0034 N.ar    1  UNL1       -0.2119
     11 C         143.1731  142.1116  165.5155 C.ar    1  UNL1        0.2211
     12 C         138.4524  140.0309  170.0582 C.1     1  UNL1        0.1004
     13 N         137.2910  139.4671  170.8219 N.1     1  UNL1       -0.1908
     14 O         144.3346  142.6754  164.7518 O.3     1  UNL1       -0.4563
     15 C         144.2825  144.0843  164.2397 C.3     1  UNL1        0.2542
     16 C         141.6708  142.2873  162.3950 C.ar    1  UNL1       -0.0064
     17 C         140.3610  142.9631  162.6736 C.ar    1  UNL1        0.0540
     18 C         139.8703  144.0513  161.7653 C.ar    1  UNL1        0.2272
     19 N         140.6895  144.4638  160.5784 N.ar    1  UNL1       -0.1767
     20 C         141.9994  143.7880  160.2998 C.ar    1  UNL1        0.2270
     21 C         142.4900  142.6998  161.2080 C.ar    1  UNL1        0.0540
     22 O         138.5605  144.7271  162.0440 O.3     1  UNL1       -0.4561
     23 C         137.5952  144.4054  163.1462 C.3     1  UNL1        0.2542
     24 O         142.8186  144.2004  159.1128 O.3     1  UNL1       -0.4640
     25 C         142.1492  144.4774  157.7993 C.3     1  UNL1        0.1678
     26 C         141.5799  143.3468  156.9945 C.3     1  UNL1        0.0473
     27 C         142.0492  145.8849  157.2905 C.3     1  UNL1        0.0473
     28 C         142.7270  139.9365  162.7236 C.3     1  UNL1        0.1161
     29 O         144.1146  140.4807  162.8922 O.3     1  UNL1       -0.3820
     30 H         144.7586  139.8282  162.5751 H       1  UNL1        0.2107
     31 C         139.1867  139.1223  161.1258 C.ar    1  UNL1        0.2272
     32 C         140.5743  139.6665  161.2944 C.ar    1  UNL1        0.0559
     33 C         141.3394  139.3923  162.5550 C.ar    1  UNL1        0.0117
     34 C         140.7169  138.5740  163.6472 C.ar    1  UNL1        0.0559
     35 C         139.3293  138.0298  163.4786 C.ar    1  UNL1        0.2272
     36 N         138.5642  138.3040  162.2179 N.ar    1  UNL1       -0.1767
     37 C         139.1549  139.7404  158.6025 C.3     1  UNL1        0.2542
     38 O         138.4216  139.3966  159.8650 O.3     1  UNL1       -0.4561
     39 O         138.7068  137.2114  164.5708 O.3     1  UNL1       -0.4561
     40 C         138.2886  137.6887  165.9299 C.3     1  UNL1        0.2542
     41 C         143.2926  138.6739  162.1440 C.3     1  UNL1        0.0491
     42 C         144.1783  138.7346  160.9350 C.3     1  UNL1        0.0750
     43 N         143.5786  138.9391  159.5754 N.3     1  UNL1       -0.2702
     44 C         143.8008  140.2297  158.8440 C.3     1  UNL1        0.0897
     45 C         142.7567  137.8530  158.9471 C.3     1  UNL1        0.0897
@<TRIPOS>BOND
     1    37    38    1
     2    38    31    1
     3    31    32   ar
     4    32    33   ar
     5    33    28    1
     6    28    29    1
     7    28    41    1
     8    41    42    1
     9    42    43    1
    10    43    44    1
    11    43    45    1
    12    28     1    1
    13     1    16    1
    14    16    17   ar
    15    17    18   ar
    16    18    22    1
    17    22    23    1
    18    18    19   ar
    19    19    20   ar
    20    20    24    1
    21    24    25    1
    22    25    26    1
    23    25    27    1
    24    20    21   ar
    25     1     2    1
    26     2     3   ar
    27     3     4   ar
    28     4     5   ar
    29     5     6   ar
    30     6    12    1
    31    12    13    3
    32     6     7   ar
    33     7     8   ar
    34     8     9   ar
    35     9    10   ar
    36    10    11   ar
    37    11    14    1
    38    14    15    1
    39    33    34   ar
    40    34    35   ar
    41    35    39    1
    42    39    40    1
    43    35    36   ar
    44    36    31   ar
    45    21    16   ar
    46    11     2   ar
    47     9     4   ar
    48    29    30    1
@<TRIPOS>MOLECULE
*****
 45 48 0 0 0
SMALL
GASTEIGER

@<TRIPOS>ATOM
      1 C         140.7398  139.9470  161.9308 C.3     1  UNL1        0.0779
      2 C         140.2158  139.7499  163.3224 C.ar    1  UNL1        0.0373
      3 C         140.6895  140.6376  164.4349 C.ar    1  UNL1        0.0023
      4 C         140.1656  140.4405  165.8266 C.ar    1  UNL1        0.0183
      5 C         140.6393  141.3281  166.9391 C.ar    1  UNL1        0.0118
      6 C         140.1154  141.1310  168.3306 C.ar    1  UNL1        0.0685
      7 C         139.1177  140.0462  168.6098 C.ar    1  UNL1        0.0118
      8 C         138.6440  139.1585  167.4973 C.ar    1  UNL1        0.0199
      9 C         139.1679  139.3557  166.1057 C.ar    1  UNL1        0.0844
     10 N         138.6942  138.4680  164.9932 N.ar    1  UNL1       -0.2119
     11 C         139.2182  138.6651  163.6016 C.ar    1  UNL1        0.2211
     12 C         140.5891  142.0187  169.4432 C.1     1  UNL1        0.1004
     13 N         141.0627  142.9063  170.5557 N.1     1  UNL1       -0.1908
     14 O         138.7445  137.7775  162.4890 O.3     1  UNL1       -0.4563
     15 C         137.5725  138.1893  161.6482 C.3     1  UNL1        0.2542
     16 C         140.2661  141.1088  161.1086 C.ar    1  UNL1       -0.0064
     17 C         140.0411  140.9424  159.6349 C.ar    1  UNL1        0.0540
     18 C         139.5674  142.1042  158.8127 C.ar    1  UNL1        0.2272
     19 N         139.3188  143.4322  159.4641 N.ar    1  UNL1       -0.1767
     20 C         139.5438  143.5985  160.9379 C.ar    1  UNL1        0.2270
     21 C         140.0175  142.4368  161.7600 C.ar    1  UNL1        0.0540
     22 O         139.3424  141.9378  157.3390 O.3     1  UNL1       -0.4561
     23 C         138.4010  142.7237  156.4752 C.3     1  UNL1        0.2542
     24 O         139.2952  144.9266  161.5893 O.3     1  UNL1       -0.4640
     25 C         139.7206  145.1568  163.0092 C.3     1  UNL1        0.1678
     26 C         141.0872  145.7003  163.3040 C.3     1  UNL1        0.0473
     27 C         138.7793  144.8436  164.1343 C.3     1  UNL1        0.0473
     28 C         141.7374  138.9824  161.3613 C.3     1  UNL1        0.1161
     29 O         140.6743  138.4075  160.4728 O.3     1  UNL1       -0.3820
     30 H         141.0534  137.6955  159.9341 H       1  UNL1        0.2107
     31 C         144.3421  139.3596  164.3317 C.ar    1  UNL1        0.2272
     32 C         143.2791  138.7848  163.4432 C.ar    1  UNL1        0.0559
     33 C         142.8004  139.5573  162.2498 C.ar    1  UNL1        0.0117
     34 C         143.3848  140.9047  161.9450 C.ar    1  UNL1        0.0559
     35 C         144.4478  141.4796  162.8336 C.ar    1  UNL1        0.2272
     36 N         144.9265  140.7070  164.0269 N.ar    1  UNL1       -0.1767
     37 C         143.8335  138.0709  166.5295 C.3     1  UNL1        0.2542
     38 O         144.8208  138.5870  165.5250 O.3     1  UNL1       -0.4561
     39 O         145.0322  142.8270  162.5287 O.3     1  UNL1       -0.4561
     40 C         144.3277  144.1501  162.5844 C.3     1  UNL1        0.2542
     41 C         142.7350  138.0178  160.7919 C.3     1  UNL1        0.0491
     42 C         142.6931  137.6690  159.3336 C.3     1  UNL1        0.0750
     43 N         142.7126  138.7572  158.3014 N.3     1  UNL1       -0.2702
     44 C         143.6282  139.9334  158.4688 C.3     1  UNL1        0.0897
     45 C         141.8164  138.6691  157.1018 C.3     1  UNL1        0.0897
@<TRIPOS>BOND
     1    37    38    1
     2    38    31    1
     3    31    32   ar
     4    32    33   ar
     5    33    28    1
     6    28    29    1
     7    28    41    1
     8    41    42    1
     9    42    43    1
    10    43    44    1
    11    43    45    1
    12    28     1    1
    13     1    16    1
    14    16    17   ar
    15    17    18   ar
    16    18    22    1
    17    22    23    1
    18    18    19   ar
    19    19    20   ar
    20    20    24    1
    21    24    25    1
    22    25    26    1
    23    25    27    1
    24    20    21   ar
    25     1     2    1
    26     2     3   ar
    27     3     4   ar
    28     4     5   ar
    29     5     6   ar
    30     6    12    1
    31    12    13    3
    32     6     7   ar
    33     7     8   ar
    34     8     9   ar
    35     9    10   ar
    36    10    11   ar
    37    11    14    1
    38    14    15    1
    39    33    34   ar
    40    34    35   ar
    41    35    39    1
    42    39    40    1
    43    35    36   ar
    44    36    31   ar
    45    21    16   ar
    46    11     2   ar
    47     9     4   ar
    48    29    30    1
@<TRIPOS>MOLECULE
*****
 45 48 0 0 0
SMALL
GASTEIGER

@<TRIPOS>ATOM
      1 C         140.7802  139.9614  161.9326 C.3     1  UNL1        0.0779
      2 C         140.2304  139.7445  163.3114 C.ar    1  UNL1        0.0373
      3 C         140.6904  140.6099  164.4469 C.ar    1  UNL1        0.0023
      4 C         140.1406  140.3931  165.8256 C.ar    1  UNL1        0.0183
      5 C         140.6006  141.2585  166.9611 C.ar    1  UNL1        0.0118
      6 C         140.0507  141.0416  168.3397 C.ar    1  UNL1        0.0685
      7 C         139.0409  139.9594  168.5828 C.ar    1  UNL1        0.0118
      8 C         138.5809  139.0940  167.4473 C.ar    1  UNL1        0.0199
      9 C         139.1307  139.3109  166.0687 C.ar    1  UNL1        0.0844
     10 N         138.6707  138.4455  164.9331 N.ar    1  UNL1       -0.2119
     11 C         139.2206  138.6623  163.5544 C.ar    1  UNL1        0.2211
     12 C         140.5107  141.9070  169.4754 C.1     1  UNL1        0.1004
     13 N         140.9708  142.7724  170.6109 N.1     1  UNL1       -0.1908
     14 O         138.7606  137.7969  162.4188 O.3     1  UNL1       -0.4563
     15 C         137.5776  138.2087  161.5936 C.3     1  UNL1        0.2542
     16 C         140.3195  141.1330  161.1172 C.ar    1  UNL1       -0.0064
     17 C         140.2422  141.0229  159.6232 C.ar    1  UNL1        0.0540
     18 C         139.7815  142.1946  158.8077 C.ar    1  UNL1        0.2272
     19 N         139.3981  143.4763  159.4862 N.ar    1  UNL1       -0.1767
     20 C         139.4754  143.5863  160.9802 C.ar    1  UNL1        0.2270
     21 C         139.9361  142.4146  161.7956 C.ar    1  UNL1        0.0540
     22 O         139.7043  142.0845  157.3138 O.3     1  UNL1       -0.4561
     23 C         139.1500  143.1020  156.3611 C.3     1  UNL1        0.2542
     24 O         139.0920  144.8679  161.6586 O.3     1  UNL1       -0.4640
     25 C         139.6269  145.1828  163.0243 C.3     1  UNL1        0.1678
     26 C         140.9836  145.8050  163.1732 C.3     1  UNL1        0.0473
     27 C         138.8051  144.8755  164.2408 C.3     1  UNL1        0.0473
     28 C         141.7907  139.0065  161.3695 C.3     1  UNL1        0.1161
     29 O         140.7432  138.4335  160.4615 O.3     1  UNL1       -0.3820
     30 H         141.1334  137.7278  159.9224 H       1  UNL1        0.2107
     31 C         144.4764  141.4998  162.8926 C.ar    1  UNL1        0.2272
     32 C         143.4289  140.9268  161.9846 C.ar    1  UNL1        0.0559
     33 C         142.8382  139.5795  162.2774 C.ar    1  UNL1        0.0117
     34 C         143.2949  138.8052  163.4782 C.ar    1  UNL1        0.0559
     35 C         144.3424  139.3783  164.3861 C.ar    1  UNL1        0.2272
     36 N         144.9332  140.7255  164.0933 N.ar    1  UNL1       -0.1767
     37 C         144.2322  144.0830  162.7596 C.3     1  UNL1        0.2542
     38 O         145.0672  142.8472  162.5998 O.3     1  UNL1       -0.4561
     39 O         144.7992  138.6039  165.5869 O.3     1  UNL1       -0.4561
     40 C         143.9331  137.9558  166.6261 C.3     1  UNL1        0.2542
     41 C         142.8011  138.0516  160.8063 C.3     1  UNL1        0.0491
     42 C         142.6864  137.5912  159.3834 C.3     1  UNL1        0.0750
     43 N         143.0678  138.5135  158.2636 N.3     1  UNL1       -0.2702
     44 C         143.6580  139.8585  158.5677 C.3     1  UNL1        0.0897
     45 C         142.8590  138.0908  156.8396 C.3     1  UNL1        0.0897
@<TRIPOS>BOND
     1    37    38    1
     2    38    31    1
     3    31    32   ar
     4    32    33   ar
     5    33    28    1
     6    28    29    1
     7    28    41    1
     8    41    42    1
     9    42    43    1
    10    43    44    1
    11    43    45    1
    12    28     1    1
    13     1    16    1
    14    16    17   ar
    15    17    18   ar
    16    18    22    1
    17    22    23    1
    18    18    19   ar
    19    19    20   ar
    20    20    24    1
    21    24    25    1
    22    25    26    1
    23    25    27    1
    24    20    21   ar
    25     1     2    1
    26     2     3   ar
    27     3     4   ar
    28     4     5   ar
    29     5     6   ar
    30     6    12    1
    31    12    13    3
    32     6     7   ar
    33     7     8   ar
    34     8     9   ar
    35     9    10   ar
    36    10    11   ar
    37    11    14    1
    38    14    15    1
    39    33    34   ar
    40    34    35   ar
    41    35    39    1
    42    39    40    1
    43    35    36   ar
    44    36    31   ar
    45    21    16   ar
    46    11     2   ar
    47     9     4   ar
    48    29    30    1
@<TRIPOS>MOLECULE
*****
 45 48 0 0 0
SMALL
GASTEIGER

@<TRIPOS>ATOM
      1 C         141.5559  140.2715  163.1198 C.3     1  UNL1        0.0779
      2 C         141.3971  140.1571  164.6070 C.ar    1  UNL1        0.0373
      3 C         142.0047  141.1911  165.5079 C.ar    1  UNL1        0.0023
      4 C         141.8458  141.0766  166.9952 C.ar    1  UNL1        0.0183
      5 C         142.4534  142.1106  167.8961 C.ar    1  UNL1        0.0118
      6 C         142.2945  141.9961  169.3832 C.ar    1  UNL1        0.0685
      7 C         141.5281  140.8476  169.9694 C.ar    1  UNL1        0.0118
      8 C         140.9206  139.8137  169.0685 C.ar    1  UNL1        0.0199
      9 C         141.0794  139.9281  167.5814 C.ar    1  UNL1        0.0844
     10 N         140.4719  138.8941  166.6804 N.ar    1  UNL1       -0.2119
     11 C         140.6307  139.0086  165.1932 C.ar    1  UNL1        0.2211
     12 C         142.9021  143.0302  170.2842 C.1     1  UNL1        0.1004
     13 N         143.5096  144.0641  171.1852 N.1     1  UNL1       -0.1908
     14 O         140.0232  137.9746  164.2922 O.3     1  UNL1       -0.4563
     15 C         138.6923  137.3721  164.6325 C.3     1  UNL1        0.2542
     16 C         140.3811  140.6487  162.2669 C.ar    1  UNL1       -0.0064
     17 C         140.0387  139.8300  161.0576 C.ar    1  UNL1        0.0540
     18 C         138.8639  140.2071  160.2046 C.ar    1  UNL1        0.2272
     19 N         138.0314  141.4029  160.5610 N.ar    1  UNL1       -0.1767
     20 C         138.3738  142.2216  161.7704 C.ar    1  UNL1        0.2270
     21 C         139.5487  141.8445  162.6233 C.ar    1  UNL1        0.0540
     22 O         138.5215  139.3884  158.9953 O.3     1  UNL1       -0.4561
     23 C         139.4346  139.0280  157.8611 C.3     1  UNL1        0.2542
     24 O         137.5414  143.4174  162.1268 O.3     1  UNL1       -0.4640
     25 C         138.0712  144.4409  163.0870 C.3     1  UNL1        0.1678
     26 C         137.6822  144.3834  164.5345 C.3     1  UNL1        0.0473
     27 C         138.9900  145.5217  162.5997 C.3     1  UNL1        0.0473
     28 C         142.8896  140.0088  162.4856 C.3     1  UNL1        0.1161
     29 O         142.6904  138.5345  162.6772 O.3     1  UNL1       -0.3820
     30 H         143.4605  138.0566  162.3318 H       1  UNL1        0.2107
     31 C         143.7791  143.8021  163.2406 C.ar    1  UNL1        0.2272
     32 C         143.5798  142.3278  163.4322 C.ar    1  UNL1        0.0559
     33 C         143.0889  141.4831  162.2940 C.ar    1  UNL1        0.0117
     34 C         142.7973  142.1128  160.9642 C.ar    1  UNL1        0.0559
     35 C         142.9966  143.5871  160.7726 C.ar    1  UNL1        0.2272
     36 N         143.4875  144.4317  161.9108 N.ar    1  UNL1       -0.1767
     37 C         144.7630  143.9962  165.6373 C.3     1  UNL1        0.2542
     38 O         144.2700  144.6467  164.3789 O.3     1  UNL1       -0.4561
     39 O         142.7049  144.2168  159.4427 O.3     1  UNL1       -0.4561
     40 C         142.7340  143.5468  158.1009 C.3     1  UNL1        0.2542
     41 C         144.2233  139.7461  161.8513 C.3     1  UNL1        0.0491
     42 C         144.3646  138.6631  160.8233 C.3     1  UNL1        0.0750
     43 N         143.6130  138.7553  159.5285 N.3     1  UNL1       -0.2702
     44 C         142.6582  137.6670  159.1364 C.3     1  UNL1        0.0897
     45 C         143.8161  139.9359  158.6258 C.3     1  UNL1        0.0897
@<TRIPOS>BOND
     1    37    38    1
     2    38    31    1
     3    31    32   ar
     4    32    33   ar
     5    33    28    1
     6    28    29    1
     7    28    41    1
     8    41    42    1
     9    42    43    1
    10    43    44    1
    11    43    45    1
    12    28     1    1
    13     1    16    1
    14    16    17   ar
    15    17    18   ar
    16    18    22    1
    17    22    23    1
    18    18    19   ar
    19    19    20   ar
    20    20    24    1
    21    24    25    1
    22    25    26    1
    23    25    27    1
    24    20    21   ar
    25     1     2    1
    26     2     3   ar
    27     3     4   ar
    28     4     5   ar
    29     5     6   ar
    30     6    12    1
    31    12    13    3
    32     6     7   ar
    33     7     8   ar
    34     8     9   ar
    35     9    10   ar
    36    10    11   ar
    37    11    14    1
    38    14    15    1
    39    33    34   ar
    40    34    35   ar
    41    35    39    1
    42    39    40    1
    43    35    36   ar
    44    36    31   ar
    45    21    16   ar
    46    11     2   ar
    47     9     4   ar
    48    29    30    1
@<TRIPOS>MOLECULE
*****
 45 48 0 0 0
SMALL
GASTEIGER

@<TRIPOS>ATOM
      1 C         140.3107  142.2975  162.6157 C.3     1  UNL1        0.0779
      2 C         140.3210  142.5415  164.0957 C.ar    1  UNL1        0.0373
      3 C         141.1019  141.6346  165.0000 C.ar    1  UNL1        0.0023
      4 C         141.1121  141.8786  166.4800 C.ar    1  UNL1        0.0183
      5 C         141.8930  140.9717  167.3842 C.ar    1  UNL1        0.0118
      6 C         141.9032  141.2157  168.8642 C.ar    1  UNL1        0.0685
      7 C         141.1326  142.3667  169.4399 C.ar    1  UNL1        0.0118
      8 C         140.3517  143.2736  168.5357 C.ar    1  UNL1        0.0199
      9 C         140.3415  143.0295  167.0557 C.ar    1  UNL1        0.0844
     10 N         139.5606  143.9365  166.1514 N.ar    1  UNL1       -0.2119
     11 C         139.5504  143.6924  164.6714 C.ar    1  UNL1        0.2211
     12 C         142.6841  140.3088  169.7685 C.1     1  UNL1        0.1004
     13 N         143.4650  139.4019  170.6728 N.1     1  UNL1       -0.1908
     14 O         138.7695  144.5994  163.7671 O.3     1  UNL1       -0.4563
     15 C         137.3511  144.2645  163.4121 C.3     1  UNL1        0.2542
     16 C         139.5465  141.1362  162.0523 C.ar    1  UNL1       -0.0064
     17 C         138.8809  141.2552  160.7134 C.ar    1  UNL1        0.0540
     18 C         138.1166  140.0939  160.1499 C.ar    1  UNL1        0.2272
     19 N         138.0180  138.8137  160.9255 N.ar    1  UNL1       -0.1767
     20 C         138.6836  138.6949  162.2645 C.ar    1  UNL1        0.2270
     21 C         139.4479  139.8561  162.8279 C.ar    1  UNL1        0.0540
     22 O         137.4510  140.2128  158.8110 O.3     1  UNL1       -0.4561
     23 C         137.9156  141.0288  157.6412 C.3     1  UNL1        0.2542
     24 O         138.5850  137.4147  163.0400 O.3     1  UNL1       -0.4640
     25 C         139.2738  137.2864  164.3664 C.3     1  UNL1        0.1678
     26 C         140.7276  136.9215  164.4243 C.3     1  UNL1        0.0473
     27 C         138.5088  137.5229  165.6348 C.3     1  UNL1        0.0473
     28 C         141.0647  143.2148  161.6991 C.3     1  UNL1        0.1161
     29 O         139.7888  143.9287  161.3640 O.3     1  UNL1       -0.3820
     30 H         139.9734  144.6419  160.7330 H       1  UNL1        0.2107
     31 C         144.0016  140.5467  161.6183 C.ar    1  UNL1        0.2272
     32 C         142.7256  141.2607  161.2833 C.ar    1  UNL1        0.0559
     33 C         142.3406  142.5008  162.0342 C.ar    1  UNL1        0.0117
     34 C         143.2315  143.0269  163.1202 C.ar    1  UNL1        0.0559
     35 C         144.5075  142.3129  163.4553 C.ar    1  UNL1        0.2272
     36 N         144.8925  141.0729  162.7043 N.ar    1  UNL1       -0.1767
     37 C         144.0343  137.9566  161.4181 C.3     1  UNL1        0.2542
     38 O         144.3865  139.3066  160.8673 O.3     1  UNL1       -0.4561
     39 O         145.3984  142.8391  164.5413 O.3     1  UNL1       -0.4561
     40 C         144.9921  143.6845  165.7118 C.3     1  UNL1        0.2542
     41 C         141.8187  144.1320  160.7825 C.3     1  UNL1        0.0491
     42 C         141.0797  145.1519  159.9679 C.3     1  UNL1        0.0750
     43 N         140.7482  144.8685  158.5327 N.3     1  UNL1       -0.2702
     44 C         140.8018  143.4620  158.0143 C.3     1  UNL1        0.0897
     45 C         140.3633  145.9915  157.6159 C.3     1  UNL1        0.0897
@<TRIPOS>BOND
     1    37    38    1
     2    38    31    1
     3    31    32   ar
     4    32    33   ar
     5    33    28    1
     6    28    29    1
     7    28    41    1
     8    41    42    1
     9    42    43    1
    10    43    44    1
    11    43    45    1
    12    28     1    1
    13     1    16    1
    14    16    17   ar
    15    17    18   ar
    16    18    22    1
    17    22    23    1
    18    18    19   ar
    19    19    20   ar
    20    20    24    1
    21    24    25    1
    22    25    26    1
    23    25    27    1
    24    20    21   ar
    25     1     2    1
    26     2     3   ar
    27     3     4   ar
    28     4     5   ar
    29     5     6   ar
    30     6    12    1
    31    12    13    3
    32     6     7   ar
    33     7     8   ar
    34     8     9   ar
    35     9    10   ar
    36    10    11   ar
    37    11    14    1
    38    14    15    1
    39    33    34   ar
    40    34    35   ar
    41    35    39    1
    42    39    40    1
    43    35    36   ar
    44    36    31   ar
    45    21    16   ar
    46    11     2   ar
    47     9     4   ar
    48    29    30    1
@<TRIPOS>MOLECULE
*****
 45 48 0 0 0
SMALL
GASTEIGER

@<TRIPOS>ATOM
      1 C         141.9815  142.4853  161.5109 C.3     1  UNL1        0.0779
      2 C         141.9174  141.9262  162.9014 C.ar    1  UNL1        0.0373
      3 C         140.6770  141.2262  163.3719 C.ar    1  UNL1        0.0023
      4 C         140.6129  140.6671  164.7624 C.ar    1  UNL1        0.0183
      5 C         139.3725  139.9671  165.2328 C.ar    1  UNL1        0.0118
      6 C         139.3084  139.4081  166.6232 C.ar    1  UNL1        0.0685
      7 C         140.4847  139.5491  167.5432 C.ar    1  UNL1        0.0118
      8 C         141.7251  140.2492  167.0728 C.ar    1  UNL1        0.0199
      9 C         141.7892  140.8082  165.6824 C.ar    1  UNL1        0.0844
     10 N         143.0296  141.5083  165.2119 N.ar    1  UNL1       -0.2119
     11 C         143.0937  142.0673  163.8215 C.ar    1  UNL1        0.2211
     12 C         138.0680  138.7080  167.0937 C.1     1  UNL1        0.1004
     13 N         136.8276  138.0080  167.5642 N.1     1  UNL1       -0.1908
     14 O         144.3341  142.7673  163.3510 O.3     1  UNL1       -0.4563
     15 C         145.5808  141.9801  163.0753 C.3     1  UNL1        0.2542
     16 C         142.7749  141.7765  160.4535 C.ar    1  UNL1       -0.0064
     17 C         143.7555  142.5400  159.6137 C.ar    1  UNL1        0.0540
     18 C         144.5489  141.8313  158.5561 C.ar    1  UNL1        0.2272
     19 N         144.3616  140.3590  158.3385 N.ar    1  UNL1       -0.1767
     20 C         143.3809  139.5955  159.1784 C.ar    1  UNL1        0.2270
     21 C         142.5875  140.3042  160.2359 C.ar    1  UNL1        0.0540
     22 O         145.5295  142.5948  157.7163 O.3     1  UNL1       -0.4561
     23 C         146.2960  142.0823  156.5331 C.3     1  UNL1        0.2542
     24 O         143.1936  138.1232  158.9608 O.3     1  UNL1       -0.4640
     25 C         142.3675  137.6346  157.8079 C.3     1  UNL1        0.1678
     26 C         142.9381  136.6336  156.8475 C.3     1  UNL1        0.0473
     27 C         140.9710  138.1470  157.6155 C.3     1  UNL1        0.0473
     28 C         141.2523  143.7531  161.1780 C.3     1  UNL1        0.1161
     29 O         142.1860  144.5229  162.0643 O.3     1  UNL1       -0.3820
     30 H         141.9426  145.4618  162.0523 H       1  UNL1        0.2107
     31 C         139.3728  142.4686  157.9272 C.ar    1  UNL1        0.2272
     32 C         140.3065  143.2384  158.8136 C.ar    1  UNL1        0.0559
     33 C         140.3186  142.9833  160.2916 C.ar    1  UNL1        0.0117
     34 C         139.3971  141.9583  160.8833 C.ar    1  UNL1        0.0559
     35 C         138.4634  141.1885  159.9970 C.ar    1  UNL1        0.2272
     36 N         138.4512  141.4436  158.5189 N.ar    1  UNL1       -0.1767
     37 C         138.1037  143.1949  155.7796 C.3     1  UNL1        0.2542
     38 O         139.3607  142.7238  156.4491 O.3     1  UNL1       -0.4561
     39 O         137.5418  140.1634  160.5888 O.3     1  UNL1       -0.4561
     40 C         137.8370  139.2360  161.7301 C.3     1  UNL1        0.2542
     41 C         140.5231  145.0209  160.8450 C.3     1  UNL1        0.0491
     42 C         139.7590  145.7487  161.9110 C.3     1  UNL1        0.0750
     43 N         139.1685  144.9890  163.0617 N.3     1  UNL1       -0.2702
     44 C         137.8063  144.3740  162.9344 C.3     1  UNL1        0.0897
     45 C         139.9401  144.8444  164.3398 C.3     1  UNL1        0.0897
@<TRIPOS>BOND
     1    37    38    1
     2    38    31    1
     3    31    32   ar
     4    32    33   ar
     5    33    28    1
     6    28    29    1
     7    28    41    1
     8    41    42    1
     9    42    43    1
    10    43    44    1
    11    43    45    1
    12    28     1    1
    13     1    16    1
    14    16    17   ar
    15    17    18   ar
    16    18    22    1
    17    22    23    1
    18    18    19   ar
    19    19    20   ar
    20    20    24    1
    21    24    25    1
    22    25    26    1
    23    25    27    1
    24    20    21   ar
    25     1     2    1
    26     2     3   ar
    27     3     4   ar
    28     4     5   ar
    29     5     6   ar
    30     6    12    1
    31    12    13    3
    32     6     7   ar
    33     7     8   ar
    34     8     9   ar
    35     9    10   ar
    36    10    11   ar
    37    11    14    1
    38    14    15    1
    39    33    34   ar
    40    34    35   ar
    41    35    39    1
    42    39    40    1
    43    35    36   ar
    44    36    31   ar
    45    21    16   ar
    46    11     2   ar
    47     9     4   ar
    48    29    30    1
@<TRIPOS>MOLECULE
*****
 45 48 0 0 0
SMALL
GASTEIGER

@<TRIPOS>ATOM
      1 C         142.2281  141.3043  162.8508 C.3     1  UNL1        0.0779
      2 C         142.5042  141.5447  164.3055 C.ar    1  UNL1        0.0373
      3 C         141.6558  140.8813  165.3495 C.ar    1  UNL1        0.0023
      4 C         141.9319  141.1217  166.8042 C.ar    1  UNL1        0.0183
      5 C         141.0836  140.4583  167.8483 C.ar    1  UNL1        0.0118
      6 C         141.3597  140.6988  169.3029 C.ar    1  UNL1        0.0685
      7 C         142.4842  141.6026  169.7134 C.ar    1  UNL1        0.0118
      8 C         143.3326  142.2660  168.6694 C.ar    1  UNL1        0.0199
      9 C         143.0564  142.0256  167.2148 C.ar    1  UNL1        0.0844
     10 N         143.9048  142.6890  166.1706 N.ar    1  UNL1       -0.2119
     11 C         143.6287  142.4486  164.7160 C.ar    1  UNL1        0.2211
     12 C         140.5113  140.0353  170.3470 C.1     1  UNL1        0.1004
     13 N         139.6629  139.3720  171.3911 N.1     1  UNL1       -0.1908
     14 O         144.4771  143.1120  163.6719 O.3     1  UNL1       -0.4563
     15 C         144.1039  144.4692  163.1536 C.3     1  UNL1        0.2542
     16 C         141.4123  142.2909  162.0692 C.ar    1  UNL1       -0.0064
     17 C         141.7686  142.5972  160.6447 C.ar    1  UNL1        0.0540
     18 C         140.9528  143.5839  159.8630 C.ar    1  UNL1        0.2272
     19 N         139.7807  144.2643  160.5059 N.ar    1  UNL1       -0.1767
     20 C         139.4244  143.9580  161.9305 C.ar    1  UNL1        0.2270
     21 C         140.2402  142.9713  162.7121 C.ar    1  UNL1        0.0540
     22 O         141.3091  143.8901  158.4385 O.3     1  UNL1       -0.4561
     23 C         142.6719  144.2049  157.8964 C.3     1  UNL1        0.2542
     24 O         138.2524  144.6384  162.5733 O.3     1  UNL1       -0.4640
     25 C         137.8535  144.2808  163.9745 C.3     1  UNL1        0.1678
     26 C         138.3843  145.0748  165.1311 C.3     1  UNL1        0.0473
     27 C         136.9239  143.1293  164.2189 C.3     1  UNL1        0.0473
     28 C         142.7678  140.0772  162.1778 C.3     1  UNL1        0.1161
     29 O         144.1456  140.6698  162.2022 O.3     1  UNL1       -0.3820
     30 H         144.7716  140.0494  161.7971 H       1  UNL1        0.2107
     31 C         139.4915  138.1551  163.3273 C.ar    1  UNL1        0.2272
     32 C         140.8693  138.7478  163.3517 C.ar    1  UNL1        0.0559
     33 C         141.3901  139.4846  162.1534 C.ar    1  UNL1        0.0117
     34 C         140.5331  139.6287  160.9308 C.ar    1  UNL1        0.0559
     35 C         139.1554  139.0361  160.9065 C.ar    1  UNL1        0.2272
     36 N         138.6346  138.2993  162.1047 N.ar    1  UNL1       -0.1767
     37 C         138.4609  138.1814  165.7121 C.3     1  UNL1        0.2542
     38 O         138.9707  137.4183  164.5257 O.3     1  UNL1       -0.4561
     39 O         138.2984  139.1803  159.6838 O.3     1  UNL1       -0.4561
     40 C         138.4673  140.1769  158.5755 C.3     1  UNL1        0.2542
     41 C         143.3075  138.8501  161.5048 C.3     1  UNL1        0.0491
     42 C         144.1757  138.9821  160.2887 C.3     1  UNL1        0.0750
     43 N         143.5515  139.1891  158.9405 N.3     1  UNL1       -0.2702
     44 C         143.7405  140.4902  158.2184 C.3     1  UNL1        0.0897
     45 C         142.7384  138.0952  158.3145 C.3     1  UNL1        0.0897
@<TRIPOS>BOND
     1    37    38    1
     2    38    31    1
     3    31    32   ar
     4    32    33   ar
     5    33    28    1
     6    28    29    1
     7    28    41    1
     8    41    42    1
     9    42    43    1
    10    43    44    1
    11    43    45    1
    12    28     1    1
    13     1    16    1
    14    16    17   ar
    15    17    18   ar
    16    18    22    1
    17    22    23    1
    18    18    19   ar
    19    19    20   ar
    20    20    24    1
    21    24    25    1
    22    25    26    1
    23    25    27    1
    24    20    21   ar
    25     1     2    1
    26     2     3   ar
    27     3     4   ar
    28     4     5   ar
    29     5     6   ar
    30     6    12    1
    31    12    13    3
    32     6     7   ar
    33     7     8   ar
    34     8     9   ar
    35     9    10   ar
    36    10    11   ar
    37    11    14    1
    38    14    15    1
    39    33    34   ar
    40    34    35   ar
    41    35    39    1
    42    39    40    1
    43    35    36   ar
    44    36    31   ar
    45    21    16   ar
    46    11     2   ar
    47     9     4   ar
    48    29    30    1
@<TRIPOS>MOLECULE
*****
 45 48 0 0 0
SMALL
GASTEIGER

@<TRIPOS>ATOM
      1 C         141.9449  142.4565  161.4718 C.3     1  UNL1        0.0779
      2 C         141.8934  141.8940  162.8615 C.ar    1  UNL1        0.0373
      3 C         140.6522  141.2055  163.3464 C.ar    1  UNL1        0.0023
      4 C         140.6007  140.6431  164.7361 C.ar    1  UNL1        0.0183
      5 C         139.3595  139.9546  165.2211 C.ar    1  UNL1        0.0118
      6 C         139.3080  139.3922  166.6107 C.ar    1  UNL1        0.0685
      7 C         140.4979  139.5183  167.5153 C.ar    1  UNL1        0.0118
      8 C         141.7391  140.2068  167.0304 C.ar    1  UNL1        0.0199
      9 C         141.7905  140.7692  165.6408 C.ar    1  UNL1        0.0844
     10 N         143.0318  141.4578  165.1557 N.ar    1  UNL1       -0.2119
     11 C         143.0832  142.0202  163.7661 C.ar    1  UNL1        0.2211
     12 C         138.0668  138.7037  167.0957 C.1     1  UNL1        0.1004
     13 N         136.8255  138.0151  167.5807 N.1     1  UNL1       -0.1908
     14 O         144.3245  142.7087  163.2811 O.3     1  UNL1       -0.4563
     15 C         145.6005  141.9349  163.1287 C.3     1  UNL1        0.2542
     16 C         142.7490  141.7640  160.4118 C.ar    1  UNL1       -0.0064
     17 C         143.7298  142.5425  159.5860 C.ar    1  UNL1        0.0540
     18 C         144.5340  141.8501  158.5259 C.ar    1  UNL1        0.2272
     19 N         144.3574  140.3790  158.2916 N.ar    1  UNL1       -0.1767
     20 C         143.3766  139.6005  159.1175 C.ar    1  UNL1        0.2270
     21 C         142.5724  140.2930  160.1775 C.ar    1  UNL1        0.0540
     22 O         145.5147  142.6286  157.7001 O.3     1  UNL1       -0.4561
     23 C         146.4144  142.0944  156.6252 C.3     1  UNL1        0.2542
     24 O         143.2000  138.1294  158.8832 O.3     1  UNL1       -0.4640
     25 C         142.3674  137.6480  157.7321 C.3     1  UNL1        0.1678
     26 C         140.9780  138.1789  157.5376 C.3     1  UNL1        0.0473
     27 C         142.9240  136.6355  156.7755 C.3     1  UNL1        0.0473
     28 C         141.1921  143.7114  161.1423 C.3     1  UNL1        0.1161
     29 O         142.0756  144.4861  162.0746 O.3     1  UNL1       -0.3820
     30 H         141.8071  145.4182  162.0747 H       1  UNL1        0.2107
     31 C         138.5055  141.1077  159.8185 C.ar    1  UNL1        0.2272
     32 C         139.3889  141.8824  160.7509 C.ar    1  UNL1        0.0559
     33 C         140.3087  142.9366  160.2100 C.ar    1  UNL1        0.0117
     34 C         140.3449  143.2161  158.7367 C.ar    1  UNL1        0.0559
     35 C         139.4615  142.4414  157.8044 C.ar    1  UNL1        0.2272
     36 N         138.5417  141.3871  158.3453 N.ar    1  UNL1       -0.1767
     37 C         137.7840  139.5268  161.7500 C.3     1  UNL1        0.2542
     38 O         137.5857  140.0534  160.3595 O.3     1  UNL1       -0.4561
     39 O         139.4978  142.7209  156.3310 O.3     1  UNL1       -0.4561
     40 C         140.7172  142.8881  155.4738 C.3     1  UNL1        0.2542
     41 C         140.4394  144.9663  160.8128 C.3     1  UNL1        0.0491
     42 C         139.7249  145.7186  161.8960 C.3     1  UNL1        0.0750
     43 N         139.1095  144.9757  163.0446 N.3     1  UNL1       -0.2702
     44 C         137.7768  144.3077  162.8779 C.3     1  UNL1        0.0897
     45 C         139.8266  144.9008  164.3599 C.3     1  UNL1        0.0897
@<TRIPOS>BOND
     1    37    38    1
     2    38    31    1
     3    31    32   ar
     4    32    33   ar
     5    33    28    1
     6    28    29    1
     7    28    41    1
     8    41    42    1
     9    42    43    1
    10    43    44    1
    11    43    45    1
    12    28     1    1
    13     1    16    1
    14    16    17   ar
    15    17    18   ar
    16    18    22    1
    17    22    23    1
    18    18    19   ar
    19    19    20   ar
    20    20    24    1
    21    24    25    1
    22    25    26    1
    23    25    27    1
    24    20    21   ar
    25     1     2    1
    26     2     3   ar
    27     3     4   ar
    28     4     5   ar
    29     5     6   ar
    30     6    12    1
    31    12    13    3
    32     6     7   ar
    33     7     8   ar
    34     8     9   ar
    35     9    10   ar
    36    10    11   ar
    37    11    14    1
    38    14    15    1
    39    33    34   ar
    40    34    35   ar
    41    35    39    1
    42    39    40    1
    43    35    36   ar
    44    36    31   ar
    45    21    16   ar
    46    11     2   ar
    47     9     4   ar
    48    29    30    1
