@<TRIPOS>MOLECULE
*****
 33 37 0 0 0
SMALL
GASTEIGER

@<TRIPOS>ATOM
      1 C         138.7620  141.7691  157.8879 C.3     1  UNL1        0.1531
      2 C         137.9664  141.6346  159.1524 C.3     1  UNL1        0.1067
      3 N         138.4009  140.6663  160.2124 N.3     1  UNL1       -0.2665
      4 C         137.6053  140.5318  161.4770 C.3     1  UNL1        0.0940
      5 C         138.0398  139.5635  162.5369 C.3     1  UNL1        0.1107
      6 N         139.2698  138.7296  162.3324 N.am    1  UNL1       -0.2764
      7 C         139.7042  137.7613  163.3925 C.2     1  UNL1        0.2302
      8 O         140.9342  136.9274  163.1879 O.2     1  UNL1       -0.2745
      9 C         140.0653  138.8641  161.0679 C.3     1  UNL1        0.1119
     10 C         139.6309  139.8324  160.0079 C.3     1  UNL1        0.1075
     11 C         140.4264  139.9669  158.7434 C.3     1  UNL1        0.1601
     12 O         139.9920  140.9352  157.6834 O.3     1  UNL1       -0.3489
     13 C         140.3519  144.2646  157.3935 C.3     1  UNL1        0.0315
     14 C         139.1225  143.9852  156.5806 C.ar    1  UNL1       -0.0139
     15 C         138.6881  144.9535  155.5206 C.ar    1  UNL1        0.0643
     16 C         137.4587  144.6741  154.7078 C.ar    1  UNL1        0.0099
     17 C         136.6638  143.4263  154.9551 C.ar    1  UNL1        0.0004
     18 C         137.0982  142.4580  156.0151 C.ar    1  UNL1       -0.0022
     19 C         138.3275  142.7374  156.8279 C.ar    1  UNL1        0.0026
     20 C         139.4831  146.2013  155.2734 C.1     1  UNL1        0.1001
     21 N         140.2780  147.4490  155.0262 N.1     1  UNL1       -0.1908
     22 C         138.9087  137.6268  164.6569 C.3     1  UNL1        0.1131
     23 C         139.2036  138.5179  165.8269 C.ar    1  UNL1        0.0062
     24 C         140.4883  139.2908  165.8759 C.ar    1  UNL1        0.0009
     25 C         140.7833  140.1819  167.0459 C.ar    1  UNL1        0.0386
     26 C         139.7937  140.3001  168.1669 C.ar    1  UNL1        0.1672
     27 N         138.5091  139.5273  168.1179 N.ar    1  UNL1       -0.2252
     28 C         138.2140  138.6362  166.9479 C.ar    1  UNL1        0.0968
     29 N         140.0887  141.1912  169.3369 N.ar    1  UNL1       -0.1708
     30 C         140.4657  142.6414  169.2677 C.ar    1  UNL1        0.2272
     31 N         140.6685  143.1351  170.6696 N.ar    1  UNL1       -0.1044
     32 N         140.4168  141.9899  171.6052 N.ar    1  UNL1       -0.0222
     33 N         140.0585  140.7886  170.7816 N.ar    1  UNL1       -0.0371
@<TRIPOS>BOND
     1    13    14    1
     2    14    15   ar
     3    15    20    1
     4    20    21    3
     5    15    16   ar
     6    16    17   ar
     7    17    18   ar
     8    18    19   ar
     9     1    19    1
    10     1     2    1
    11     2     3    1
    12     3     4    1
    13     4     5    1
    14     5     6    1
    15     6     7   am
    16     7     8    2
    17     7    22    1
    18    22    23    1
    19    23    24   ar
    20    24    25   ar
    21    25    26   ar
    22    26    29    1
    23    29    30   ar
    24    30    31   ar
    25    31    32   ar
    26    32    33   ar
    27    26    27   ar
    28    27    28   ar
    29     6     9    1
    30    10     9    1
    31    10    11    1
    32    11    12    1
    33    19    14   ar
    34    12     1    1
    35    10     3    1
    36    28    23   ar
    37    33    29   ar
@<TRIPOS>MOLECULE
*****
 33 37 0 0 0
SMALL
GASTEIGER

@<TRIPOS>ATOM
      1 C         142.3248  138.3069  156.8115 C.3     1  UNL1        0.1531
      2 C         142.6290  137.6401  158.1202 C.3     1  UNL1        0.1067
      3 N         143.1837  138.4425  159.2596 N.3     1  UNL1       -0.2665
      4 C         143.4881  137.7758  160.5684 C.3     1  UNL1        0.0940
      5 C         144.0427  138.5782  161.7079 C.3     1  UNL1        0.1107
      6 N         144.2931  140.0474  161.5386 N.am    1  UNL1       -0.2764
      7 C         144.8479  140.8499  162.6781 C.2     1  UNL1        0.2302
      8 O         145.0983  142.3191  162.5088 O.2     1  UNL1       -0.2745
      9 C         143.9889  140.7142  160.2299 C.3     1  UNL1        0.1119
     10 C         143.4341  139.9118  159.0904 C.3     1  UNL1        0.1075
     11 C         143.1298  140.5785  157.7817 C.3     1  UNL1        0.1601
     12 O         142.5752  139.7761  156.6422 O.3     1  UNL1       -0.3489
     13 C         139.4955  138.7371  155.9113 C.3     1  UNL1        0.0315
     14 C         140.3554  137.7195  155.2219 C.ar    1  UNL1       -0.0139
     15 C         139.8007  136.9171  154.0824 C.ar    1  UNL1        0.0643
     16 C         140.6606  135.8996  153.3930 C.ar    1  UNL1        0.0099
     17 C         142.0752  135.6844  153.8431 C.ar    1  UNL1        0.0004
     18 C         142.6299  136.4869  154.9826 C.ar    1  UNL1       -0.0022
     19 C         141.7700  137.5044  155.6720 C.ar    1  UNL1        0.0026
     20 C         138.3861  137.1322  153.6323 C.1     1  UNL1        0.1001
     21 N         136.9715  137.3473  153.1822 N.1     1  UNL1       -0.1908
     22 C         145.1522  140.1831  163.9868 C.3     1  UNL1        0.1131
     23 C         144.1040  140.1202  165.0580 C.ar    1  UNL1        0.0062
     24 C         143.7648  138.8072  165.6992 C.ar    1  UNL1        0.0009
     25 C         142.7167  138.7442  166.7703 C.ar    1  UNL1        0.0386
     26 C         142.0078  139.9942  167.2004 C.ar    1  UNL1        0.1672
     27 N         142.3470  141.3072  166.5593 N.ar    1  UNL1       -0.2252
     28 C         143.3952  141.3702  165.4881 C.ar    1  UNL1        0.0968
     29 N         140.9597  139.9313  168.2716 N.ar    1  UNL1       -0.1708
     30 C         141.2106  139.9066  169.7503 C.ar    1  UNL1        0.2272
     31 N         139.8825  139.8420  170.4448 N.ar    1  UNL1       -0.1044
     32 N         138.8109  139.8268  169.3952 N.ar    1  UNL1       -0.0222
     33 N         139.4766  139.8819  168.0522 N.ar    1  UNL1       -0.0371
@<TRIPOS>BOND
     1    13    14    1
     2    14    15   ar
     3    15    20    1
     4    20    21    3
     5    15    16   ar
     6    16    17   ar
     7    17    18   ar
     8    18    19   ar
     9     1    19    1
    10     1     2    1
    11     2     3    1
    12     3     4    1
    13     4     5    1
    14     5     6    1
    15     6     7   am
    16     7     8    2
    17     7    22    1
    18    22    23    1
    19    23    24   ar
    20    24    25   ar
    21    25    26   ar
    22    26    29    1
    23    29    30   ar
    24    30    31   ar
    25    31    32   ar
    26    32    33   ar
    27    26    27   ar
    28    27    28   ar
    29     6     9    1
    30    10     9    1
    31    10    11    1
    32    11    12    1
    33    19    14   ar
    34    12     1    1
    35    10     3    1
    36    28    23   ar
    37    33    29   ar
@<TRIPOS>MOLECULE
*****
 33 37 0 0 0
SMALL
GASTEIGER

@<TRIPOS>ATOM
      1 C         142.4162  140.6574  164.0852 C.3     1  UNL1        0.1531
      2 C         141.5280  139.8043  163.2290 C.3     1  UNL1        0.1067
      3 N         141.8906  139.5456  161.7967 N.3     1  UNL1       -0.2665
      4 C         141.0023  138.6925  160.9404 C.3     1  UNL1        0.0940
      5 C         141.3649  138.4338  159.5081 C.3     1  UNL1        0.1107
      6 N         142.6157  139.0283  158.9319 N.am    1  UNL1       -0.2764
      7 C         142.9783  138.7697  157.4995 C.2     1  UNL1        0.2302
      8 O         144.2291  139.3642  156.9234 O.2     1  UNL1       -0.2745
      9 C         143.5040  139.8815  159.7881 C.3     1  UNL1        0.1119
     10 C         143.1414  140.1402  161.2205 C.3     1  UNL1        0.1075
     11 C         144.0297  140.9933  162.0767 C.3     1  UNL1        0.1601
     12 O         143.6671  141.2519  163.5091 O.3     1  UNL1       -0.3489
     13 C         143.2837  138.7387  166.2220 C.3     1  UNL1        0.0315
     14 C         142.4874  139.9567  166.5860 C.ar    1  UNL1       -0.0139
     15 C         142.1249  140.2153  168.0184 C.ar    1  UNL1        0.0643
     16 C         141.3286  141.4333  168.3823 C.ar    1  UNL1        0.0099
     17 C         140.8948  142.3927  167.3139 C.ar    1  UNL1        0.0004
     18 C         141.2574  142.1340  165.8815 C.ar    1  UNL1       -0.0022
     19 C         142.0537  140.9161  165.5176 C.ar    1  UNL1        0.0026
     20 C         142.5587  139.2560  169.0868 C.1     1  UNL1        0.1001
     21 N         142.9924  138.2967  170.1552 N.1     1  UNL1       -0.1908
     22 C         142.0900  137.9165  156.6434 C.3     1  UNL1        0.1131
     23 C         142.5135  136.5251  156.2767 C.ar    1  UNL1        0.0062
     24 C         142.2830  136.0130  154.8857 C.ar    1  UNL1        0.0009
     25 C         142.7064  134.6215  154.5190 C.ar    1  UNL1        0.0386
     26 C         143.3604  133.7421  155.5432 C.ar    1  UNL1        0.1672
     27 N         143.5910  134.2542  156.9341 N.ar    1  UNL1       -0.2252
     28 C         143.1675  135.6457  157.3009 C.ar    1  UNL1        0.0968
     29 N         143.7839  132.3507  155.1766 N.ar    1  UNL1       -0.1708
     30 C         143.3116  131.5703  153.9857 C.ar    1  UNL1        0.2272
     31 N         143.9899  130.2325  154.0095 N.ar    1  UNL1       -0.1044
     32 N         144.8813  130.1862  155.2151 N.ar    1  UNL1       -0.0222
     33 N         144.7540  131.4952  155.9363 N.ar    1  UNL1       -0.0371
@<TRIPOS>BOND
     1    13    14    1
     2    14    15   ar
     3    15    20    1
     4    20    21    3
     5    15    16   ar
     6    16    17   ar
     7    17    18   ar
     8    18    19   ar
     9     1    19    1
    10     1     2    1
    11     2     3    1
    12     3     4    1
    13     4     5    1
    14     5     6    1
    15     6     7   am
    16     7     8    2
    17     7    22    1
    18    22    23    1
    19    23    24   ar
    20    24    25   ar
    21    25    26   ar
    22    26    29    1
    23    29    30   ar
    24    30    31   ar
    25    31    32   ar
    26    32    33   ar
    27    26    27   ar
    28    27    28   ar
    29     6     9    1
    30    10     9    1
    31    10    11    1
    32    11    12    1
    33    19    14   ar
    34    12     1    1
    35    10     3    1
    36    28    23   ar
    37    33    29   ar
@<TRIPOS>MOLECULE
*****
 33 37 0 0 0
SMALL
GASTEIGER

@<TRIPOS>ATOM
      1 C         141.9840  140.7169  165.8264 C.3     1  UNL1        0.1531
      2 C         142.0782  141.7753  164.7678 C.3     1  UNL1        0.1067
      3 N         142.4242  141.3974  163.3581 N.3     1  UNL1       -0.2665
      4 C         142.5184  142.4559  162.2993 C.3     1  UNL1        0.0940
      5 C         142.8644  142.0779  160.8896 C.3     1  UNL1        0.1107
      6 N         143.1163  140.6415  160.5385 N.am    1  UNL1       -0.2764
      7 C         143.4623  140.2635  159.1287 C.2     1  UNL1        0.2302
      8 O         143.7142  138.8271  158.7776 O.2     1  UNL1       -0.2745
      9 C         143.0221  139.5830  161.5972 C.3     1  UNL1        0.1119
     10 C         142.6761  139.9610  163.0070 C.3     1  UNL1        0.1075
     11 C         142.5819  138.9025  164.0656 C.3     1  UNL1        0.1601
     12 O         142.2359  139.2805  165.4753 O.3     1  UNL1       -0.3489
     13 C         139.5186  139.5967  167.1175 C.3     1  UNL1        0.0315
     14 C         140.4053  140.5347  167.8818 C.ar    1  UNL1       -0.0139
     15 C         140.0592  140.9126  169.2915 C.ar    1  UNL1        0.0643
     16 C         140.9459  141.8507  170.0558 C.ar    1  UNL1        0.0099
     17 C         142.1785  142.4108  169.4102 C.ar    1  UNL1        0.0004
     18 C         142.5246  142.0329  168.0004 C.ar    1  UNL1       -0.0022
     19 C         141.6380  141.0948  167.2362 C.ar    1  UNL1        0.0026
     20 C         138.8265  140.3525  169.9371 C.1     1  UNL1        0.1001
     21 N         137.5939  139.7924  170.5827 N.1     1  UNL1       -0.1908
     22 C         143.5565  141.3220  158.0701 C.3     1  UNL1        0.1131
     23 C         144.8380  141.5155  157.3149 C.ar    1  UNL1        0.0062
     24 C         145.8342  142.5372  157.7775 C.ar    1  UNL1        0.0009
     25 C         147.1157  142.7307  157.0223 C.ar    1  UNL1        0.0386
     26 C         147.4011  141.9025  155.8047 C.ar    1  UNL1        0.1672
     27 N         146.4050  140.8809  155.3422 N.ar    1  UNL1       -0.2252
     28 C         145.1234  140.6873  156.0973 C.ar    1  UNL1        0.0968
     29 N         148.6826  142.0960  155.0496 N.ar    1  UNL1       -0.1708
     30 C         148.8234  142.7402  153.7023 C.ar    1  UNL1        0.2272
     31 N         150.2763  142.7217  153.3291 N.ar    1  UNL1       -0.1044
     32 N         151.0333  142.0660  154.4459 N.ar    1  UNL1       -0.0222
     33 N         150.0484  141.6793  155.5091 N.ar    1  UNL1       -0.0371
@<TRIPOS>BOND
     1    13    14    1
     2    14    15   ar
     3    15    20    1
     4    20    21    3
     5    15    16   ar
     6    16    17   ar
     7    17    18   ar
     8    18    19   ar
     9     1    19    1
    10     1     2    1
    11     2     3    1
    12     3     4    1
    13     4     5    1
    14     5     6    1
    15     6     7   am
    16     7     8    2
    17     7    22    1
    18    22    23    1
    19    23    24   ar
    20    24    25   ar
    21    25    26   ar
    22    26    29    1
    23    29    30   ar
    24    30    31   ar
    25    31    32   ar
    26    32    33   ar
    27    26    27   ar
    28    27    28   ar
    29     6     9    1
    30    10     9    1
    31    10    11    1
    32    11    12    1
    33    19    14   ar
    34    12     1    1
    35    10     3    1
    36    28    23   ar
    37    33    29   ar
@<TRIPOS>MOLECULE
*****
 33 37 0 0 0
SMALL
GASTEIGER

@<TRIPOS>ATOM
      1 C         141.3383  140.4025  164.4034 C.3     1  UNL1        0.1531
      2 C         142.4164  139.5978  163.7399 C.3     1  UNL1        0.1067
      3 N         142.2697  139.1867  162.3049 N.3     1  UNL1       -0.2665
      4 C         143.3478  138.3820  161.6413 C.3     1  UNL1        0.0940
      5 C         143.2011  137.9709  160.2062 C.3     1  UNL1        0.1107
      6 N         141.9765  138.3645  159.4347 N.am    1  UNL1       -0.2764
      7 C         141.8299  137.9533  157.9995 C.2     1  UNL1        0.2302
      8 O         140.6052  138.3469  157.2280 O.2     1  UNL1       -0.2745
      9 C         140.8985  139.1692  160.0982 C.3     1  UNL1        0.1119
     10 C         141.0451  139.5803  161.5333 C.3     1  UNL1        0.1075
     11 C         139.9670  140.3850  162.1968 C.3     1  UNL1        0.1601
     12 O         140.1137  140.7961  163.6319 O.3     1  UNL1       -0.3489
     13 C         139.2936  139.5472  166.4252 C.3     1  UNL1        0.0315
     14 C         140.4626  140.3860  166.8494 C.ar    1  UNL1       -0.0139
     15 C         140.6091  140.7971  168.2845 C.ar    1  UNL1        0.0643
     16 C         141.7781  141.6359  168.7088 C.ar    1  UNL1        0.0099
     17 C         142.8005  142.0636  167.6979 C.ar    1  UNL1        0.0004
     18 C         142.6539  141.6524  166.2628 C.ar    1  UNL1       -0.0022
     19 C         141.4850  140.8137  165.8386 C.ar    1  UNL1        0.0026
     20 C         139.5867  140.3695  169.2954 C.1     1  UNL1        0.1001
     21 N         138.5644  139.9418  170.3062 N.1     1  UNL1       -0.1908
     22 C         142.9079  137.1486  157.3360 C.3     1  UNL1        0.1131
     23 C         142.6293  135.7430  156.8928 C.ar    1  UNL1        0.0062
     24 C         141.7439  135.4915  155.7084 C.ar    1  UNL1        0.0009
     25 C         141.4653  134.0858  155.2652 C.ar    1  UNL1        0.0386
     26 C         142.0722  132.9316  156.0064 C.ar    1  UNL1        0.1672
     27 N         142.9576  133.1830  157.1908 N.ar    1  UNL1       -0.2252
     28 C         143.2362  134.5887  157.6340 C.ar    1  UNL1        0.0968
     29 N         141.7936  131.5259  155.5632 N.ar    1  UNL1       -0.1708
     30 C         140.7508  131.1046  154.5708 C.ar    1  UNL1        0.2272
     31 N         140.8217  129.6129  154.4288 N.ar    1  UNL1       -0.1044
     32 N         141.9084  129.1124  155.3336 N.ar    1  UNL1       -0.0222
     33 N         142.5091  130.2946  156.0347 N.ar    1  UNL1       -0.0371
@<TRIPOS>BOND
     1    13    14    1
     2    14    15   ar
     3    15    20    1
     4    20    21    3
     5    15    16   ar
     6    16    17   ar
     7    17    18   ar
     8    18    19   ar
     9     1    19    1
    10     1     2    1
    11     2     3    1
    12     3     4    1
    13     4     5    1
    14     5     6    1
    15     6     7   am
    16     7     8    2
    17     7    22    1
    18    22    23    1
    19    23    24   ar
    20    24    25   ar
    21    25    26   ar
    22    26    29    1
    23    29    30   ar
    24    30    31   ar
    25    31    32   ar
    26    32    33   ar
    27    26    27   ar
    28    27    28   ar
    29     6     9    1
    30    10     9    1
    31    10    11    1
    32    11    12    1
    33    19    14   ar
    34    12     1    1
    35    10     3    1
    36    28    23   ar
    37    33    29   ar
@<TRIPOS>MOLECULE
*****
 33 37 0 0 0
SMALL
GASTEIGER

@<TRIPOS>ATOM
      1 C         142.1769  137.6889  157.2104 C.3     1  UNL1        0.1531
      2 C         140.9597  137.8051  158.0791 C.3     1  UNL1        0.1067
      3 N         140.9587  138.7468  159.2466 N.3     1  UNL1       -0.2665
      4 C         139.7414  138.8631  160.1154 C.3     1  UNL1        0.0940
      5 C         139.7404  139.8047  161.2830 C.3     1  UNL1        0.1107
      6 N         140.9567  140.6302  161.5818 N.am    1  UNL1       -0.2764
      7 C         140.9556  141.5719  162.7494 C.2     1  UNL1        0.2302
      8 O         142.1719  142.3973  163.0483 O.2     1  UNL1       -0.2745
      9 C         142.1739  140.5140  160.7131 C.3     1  UNL1        0.1119
     10 C         142.1750  139.5722  159.5455 C.3     1  UNL1        0.1075
     11 C         143.3922  139.4560  158.6768 C.3     1  UNL1        0.1601
     12 O         143.3932  138.5144  157.5092 O.3     1  UNL1       -0.3489
     13 C         143.3085  134.9269  157.5120 C.3     1  UNL1        0.0315
     14 C         142.7437  135.3662  156.1936 C.ar    1  UNL1       -0.0139
     15 C         142.7448  134.4245  155.0260 C.ar    1  UNL1        0.0643
     16 C         142.1800  134.8638  153.7076 C.ar    1  UNL1        0.0099
     17 C         141.6143  136.2448  153.5568 C.ar    1  UNL1        0.0004
     18 C         141.6132  137.1865  154.7244 C.ar    1  UNL1       -0.0022
     19 C         142.1780  136.7472  156.0428 C.ar    1  UNL1        0.0026
     20 C         143.3106  133.0435  155.1768 C.1     1  UNL1        0.1001
     21 N         143.8763  131.6625  155.3276 N.1     1  UNL1       -0.1908
     22 C         139.7384  141.6881  163.6182 C.3     1  UNL1        0.1131
     23 C         139.8762  141.6498  165.1113 C.ar    1  UNL1        0.0062
     24 C         140.2870  142.8840  165.8585 C.ar    1  UNL1        0.0009
     25 C         140.4248  142.8457  167.3516 C.ar    1  UNL1        0.0386
     26 C         140.1518  141.5733  168.0976 C.ar    1  UNL1        0.1672
     27 N         139.7410  140.3392  167.3505 N.ar    1  UNL1       -0.2252
     28 C         139.6032  140.3775  165.8573 C.ar    1  UNL1        0.0968
     29 N         140.2896  141.5350  169.5908 N.ar    1  UNL1       -0.1708
     30 C         140.6464  140.3321  170.4127 C.ar    1  UNL1        0.2272
     31 N         140.6722  140.7466  171.8542 N.ar    1  UNL1       -0.1044
     32 N         140.3313  142.2058  171.9230 N.ar    1  UNL1       -0.0222
     33 N         140.0949  142.6930  170.5242 N.ar    1  UNL1       -0.0371
@<TRIPOS>BOND
     1    13    14    1
     2    14    15   ar
     3    15    20    1
     4    20    21    3
     5    15    16   ar
     6    16    17   ar
     7    17    18   ar
     8    18    19   ar
     9     1    19    1
    10     1     2    1
    11     2     3    1
    12     3     4    1
    13     4     5    1
    14     5     6    1
    15     6     7   am
    16     7     8    2
    17     7    22    1
    18    22    23    1
    19    23    24   ar
    20    24    25   ar
    21    25    26   ar
    22    26    29    1
    23    29    30   ar
    24    30    31   ar
    25    31    32   ar
    26    32    33   ar
    27    26    27   ar
    28    27    28   ar
    29     6     9    1
    30    10     9    1
    31    10    11    1
    32    11    12    1
    33    19    14   ar
    34    12     1    1
    35    10     3    1
    36    28    23   ar
    37    33    29   ar
@<TRIPOS>MOLECULE
*****
 33 37 0 0 0
SMALL
GASTEIGER

@<TRIPOS>ATOM
      1 C         140.1237  139.0163  157.7265 C.3     1  UNL1        0.1531
      2 C         139.6399  138.4776  159.0401 C.3     1  UNL1        0.1067
      3 N         140.5204  138.5537  160.2520 N.3     1  UNL1       -0.2665
      4 C         140.0367  138.0149  161.5657 C.3     1  UNL1        0.0940
      5 C         140.9172  138.0911  162.7776 C.3     1  UNL1        0.1107
      6 N         142.2817  138.7059  162.6758 N.am    1  UNL1       -0.2764
      7 C         143.1623  138.7820  163.8878 C.2     1  UNL1        0.2302
      8 O         144.5267  139.3969  163.7861 O.2     1  UNL1       -0.2745
      9 C         142.7655  139.2447  161.3622 C.3     1  UNL1        0.1119
     10 C         141.8849  139.1686  160.1502 C.3     1  UNL1        0.1075
     11 C         142.3687  139.7073  158.8366 C.3     1  UNL1        0.1601
     12 O         141.4881  139.6312  157.6247 O.3     1  UNL1       -0.3489
     13 C         138.4403  141.3734  156.9451 C.3     1  UNL1        0.0315
     14 C         138.4014  140.1188  156.1238 C.ar    1  UNL1       -0.0139
     15 C         137.5208  140.0427  154.9119 C.ar    1  UNL1        0.0643
     16 C         137.4819  138.7881  154.0906 C.ar    1  UNL1        0.0099
     17 C         138.3236  137.6096  154.4813 C.ar    1  UNL1        0.0004
     18 C         139.2042  137.6857  155.6933 C.ar    1  UNL1       -0.0022
     19 C         139.2431  138.9403  156.5145 C.ar    1  UNL1        0.0026
     20 C         136.6791  141.2213  154.5212 C.1     1  UNL1        0.1001
     21 N         135.8374  142.3998  154.1306 N.1     1  UNL1       -0.1908
     22 C         142.6785  138.2433  165.2014 C.3     1  UNL1        0.1131
     23 C         142.1411  139.1788  166.2435 C.ar    1  UNL1        0.0062
     24 C         142.7839  139.2424  167.5974 C.ar    1  UNL1        0.0009
     25 C         142.2466  140.1779  168.6395 C.ar    1  UNL1        0.0386
     26 C         141.0665  141.0498  168.3279 C.ar    1  UNL1        0.1672
     27 N         140.4237  140.9862  166.9741 N.ar    1  UNL1       -0.2252
     28 C         140.9610  140.0506  165.9319 C.ar    1  UNL1        0.0968
     29 N         140.5292  141.9853  169.3700 N.ar    1  UNL1       -0.1708
     30 C         140.4272  143.4769  169.2476 C.ar    1  UNL1        0.2272
     31 N         139.8344  144.0070  170.5195 N.ar    1  UNL1       -0.1044
     32 N         139.5701  142.8430  171.4280 N.ar    1  UNL1       -0.0222
     33 N         139.9994  141.5936  170.7176 N.ar    1  UNL1       -0.0371
@<TRIPOS>BOND
     1    13    14    1
     2    14    15   ar
     3    15    20    1
     4    20    21    3
     5    15    16   ar
     6    16    17   ar
     7    17    18   ar
     8    18    19   ar
     9     1    19    1
    10     1     2    1
    11     2     3    1
    12     3     4    1
    13     4     5    1
    14     5     6    1
    15     6     7   am
    16     7     8    2
    17     7    22    1
    18    22    23    1
    19    23    24   ar
    20    24    25   ar
    21    25    26   ar
    22    26    29    1
    23    29    30   ar
    24    30    31   ar
    25    31    32   ar
    26    32    33   ar
    27    26    27   ar
    28    27    28   ar
    29     6     9    1
    30    10     9    1
    31    10    11    1
    32    11    12    1
    33    19    14   ar
    34    12     1    1
    35    10     3    1
    36    28    23   ar
    37    33    29   ar
@<TRIPOS>MOLECULE
*****
 33 37 0 0 0
SMALL
GASTEIGER

@<TRIPOS>ATOM
      1 C         142.3037  142.4181  165.8739 C.3     1  UNL1        0.1531
      2 C         143.2596  141.6446  165.0150 C.3     1  UNL1        0.1067
      3 N         143.3878  141.9689  163.5561 N.3     1  UNL1       -0.2665
      4 C         144.3438  141.1954  162.6970 C.3     1  UNL1        0.0940
      5 C         144.4720  141.5197  161.2381 C.3     1  UNL1        0.1107
      6 N         143.6443  142.6175  160.6383 N.am    1  UNL1       -0.2764
      7 C         143.7726  142.9418  159.1793 C.2     1  UNL1        0.2302
      8 O         142.9449  144.0395  158.5794 O.2     1  UNL1       -0.2745
      9 C         142.6884  143.3910  161.4973 C.3     1  UNL1        0.1119
     10 C         142.5601  143.0667  162.9562 C.3     1  UNL1        0.1075
     11 C         141.6042  143.8401  163.8152 C.3     1  UNL1        0.1601
     12 O         141.4760  143.5159  165.2741 O.3     1  UNL1       -0.3489
     13 C         139.7872  141.1599  166.9152 C.3     1  UNL1        0.0315
     14 C         140.9172  141.4647  167.8536 C.ar    1  UNL1       -0.0139
     15 C         140.7888  141.1405  169.3124 C.ar    1  UNL1        0.0643
     16 C         141.9188  141.4453  170.2507 C.ar    1  UNL1        0.0099
     17 C         143.1771  142.0743  169.7301 C.ar    1  UNL1        0.0004
     18 C         143.3053  142.3986  168.2711 C.ar    1  UNL1       -0.0022
     19 C         142.1754  142.0938  167.3329 C.ar    1  UNL1        0.0026
     20 C         139.5306  140.5114  169.8331 C.1     1  UNL1        0.1001
     21 N         138.2724  139.8823  170.3537 N.1     1  UNL1       -0.1908
     22 C         144.7285  142.1683  158.3203 C.3     1  UNL1        0.1131
     23 C         144.2989  140.8720  157.6999 C.ar    1  UNL1        0.0062
     24 C         143.1660  140.0927  158.2993 C.ar    1  UNL1        0.0009
     25 C         142.7363  138.7964  157.6789 C.ar    1  UNL1        0.0386
     26 C         143.4396  138.2793  156.4590 C.ar    1  UNL1        0.1672
     27 N         144.5725  139.0585  155.8596 N.ar    1  UNL1       -0.2252
     28 C         145.0022  140.3549  156.4800 C.ar    1  UNL1        0.0968
     29 N         143.0100  136.9830  155.8386 N.ar    1  UNL1       -0.1708
     30 C         141.5965  136.5058  155.6829 C.ar    1  UNL1        0.2272
     31 N         141.6313  135.1641  155.0130 N.ar    1  UNL1       -0.1044
     32 N         143.0665  134.8122  154.7546 N.ar    1  UNL1       -0.0222
     33 N         143.9185  135.9363  155.2648 N.ar    1  UNL1       -0.0371
@<TRIPOS>BOND
     1    13    14    1
     2    14    15   ar
     3    15    20    1
     4    20    21    3
     5    15    16   ar
     6    16    17   ar
     7    17    18   ar
     8    18    19   ar
     9     1    19    1
    10     1     2    1
    11     2     3    1
    12     3     4    1
    13     4     5    1
    14     5     6    1
    15     6     7   am
    16     7     8    2
    17     7    22    1
    18    22    23    1
    19    23    24   ar
    20    24    25   ar
    21    25    26   ar
    22    26    29    1
    23    29    30   ar
    24    30    31   ar
    25    31    32   ar
    26    32    33   ar
    27    26    27   ar
    28    27    28   ar
    29     6     9    1
    30    10     9    1
    31    10    11    1
    32    11    12    1
    33    19    14   ar
    34    12     1    1
    35    10     3    1
    36    28    23   ar
    37    33    29   ar
@<TRIPOS>MOLECULE
*****
 33 37 0 0 0
SMALL
GASTEIGER

@<TRIPOS>ATOM
      1 C         142.3819  142.2344  165.7560 C.3     1  UNL1        0.1531
      2 C         142.9896  141.1741  164.8863 C.3     1  UNL1        0.1067
      3 N         143.1402  141.4084  163.4125 N.3     1  UNL1       -0.2665
      4 C         143.7479  140.3480  162.5427 C.3     1  UNL1        0.0940
      5 C         143.8985  140.5823  161.0688 C.3     1  UNL1        0.1107
      6 N         143.4415  141.8770  160.4646 N.am    1  UNL1       -0.2764
      7 C         143.5921  142.1112  158.9906 C.2     1  UNL1        0.2302
      8 O         143.1350  143.4059  158.3865 O.2     1  UNL1       -0.2745
      9 C         142.8338  142.9373  161.3343 C.3     1  UNL1        0.1119
     10 C         142.6832  142.7030  162.8083 C.3     1  UNL1        0.1075
     11 C         142.0755  143.7633  163.6780 C.3     1  UNL1        0.1601
     12 O         141.9249  143.5290  165.1518 O.3     1  UNL1       -0.3489
     13 C         139.8404  141.0625  166.8365 C.3     1  UNL1        0.0315
     14 C         140.9606  141.4142  167.7702 C.ar    1  UNL1       -0.0139
     15 C         140.8099  141.1799  169.2441 C.ar    1  UNL1        0.0643
     16 C         141.9300  141.5316  170.1778 C.ar    1  UNL1        0.0099
     17 C         143.2008  142.1175  169.6376 C.ar    1  UNL1        0.0004
     18 C         143.3514  142.3518  168.1636 C.ar    1  UNL1       -0.0022
     19 C         142.2313  142.0001  167.2300 C.ar    1  UNL1        0.0026
     20 C         139.5391  140.5940  169.7844 C.1     1  UNL1        0.1001
     21 N         138.2684  140.0081  170.3246 N.1     1  UNL1       -0.1908
     22 C         144.1998  141.0509  158.1209 C.3     1  UNL1        0.1131
     23 C         145.3086  141.4023  157.1739 C.ar    1  UNL1        0.0062
     24 C         145.4558  140.6556  155.8813 C.ar    1  UNL1        0.0009
     25 C         146.5647  141.0070  154.9342 C.ar    1  UNL1        0.0386
     26 C         147.5264  142.1050  155.2798 C.ar    1  UNL1        0.1672
     27 N         147.3793  142.8516  156.5724 N.ar    1  UNL1       -0.2252
     28 C         146.2704  142.5003  157.5195 C.ar    1  UNL1        0.0968
     29 N         148.6353  142.4563  154.3328 N.ar    1  UNL1       -0.1708
     30 C         149.9175  141.6981  154.1563 C.ar    1  UNL1        0.2272
     31 N         150.7314  142.4008  153.1103 N.ar    1  UNL1       -0.1044
     32 N         149.9521  143.5934  152.6404 N.ar    1  UNL1       -0.0222
     33 N         148.6567  143.6277  153.3959 N.ar    1  UNL1       -0.0371
@<TRIPOS>BOND
     1    13    14    1
     2    14    15   ar
     3    15    20    1
     4    20    21    3
     5    15    16   ar
     6    16    17   ar
     7    17    18   ar
     8    18    19   ar
     9     1    19    1
    10     1     2    1
    11     2     3    1
    12     3     4    1
    13     4     5    1
    14     5     6    1
    15     6     7   am
    16     7     8    2
    17     7    22    1
    18    22    23    1
    19    23    24   ar
    20    24    25   ar
    21    25    26   ar
    22    26    29    1
    23    29    30   ar
    24    30    31   ar
    25    31    32   ar
    26    32    33   ar
    27    26    27   ar
    28    27    28   ar
    29     6     9    1
    30    10     9    1
    31    10    11    1
    32    11    12    1
    33    19    14   ar
    34    12     1    1
    35    10     3    1
    36    28    23   ar
    37    33    29   ar
