@<TRIPOS>MOLECULE
*****
 34 37 0 0 0
SMALL
GASTEIGER

@<TRIPOS>ATOM
      1 O         138.6046  139.5592  169.3666 O.2     1  UNL1       -0.2698
      2 C         139.5794  140.2703  168.4755 C.2     1  UNL1        0.2516
      3 N         139.4800  140.1221  166.9860 N.am    1  UNL1       -0.2659
      4 C         138.4058  139.2629  166.3879 C.3     1  UNL1        0.1160
      5 C         138.3064  139.1147  164.8985 C.3     1  UNL1        0.1197
      6 N         139.2812  139.8258  164.0073 N.am    1  UNL1       -0.2555
      7 C         140.3554  140.6851  164.6055 C.2     1  UNL1        0.2497
      8 O         141.3302  141.3961  163.7143 O.2     1  UNL1       -0.2727
      9 C         140.4548  140.8332  166.0949 C.3     1  UNL1        0.1799
     10 C         140.6536  141.1295  169.0736 C.ar    1  UNL1        0.0811
     11 C         140.3743  142.5694  169.3876 C.ar    1  UNL1        0.0091
     12 C         141.4486  143.4287  169.9858 C.ar    1  UNL1        0.0299
     13 C         142.8021  142.8479  170.2699 C.ar    1  UNL1        0.1424
     14 F         143.8763  143.7072  170.8680 F       1  UNL1       -0.2041
     15 C         143.0814  141.4080  169.9559 C.ar    1  UNL1        0.0594
     16 C         142.0071  140.5489  169.3577 C.ar    1  UNL1        0.1467
     17 F         142.2864  139.1089  169.0437 F       1  UNL1       -0.2039
     18 C         139.1818  139.6777  162.5180 C.ar    1  UNL1        0.0541
     19 C         138.6347  140.8005  161.6874 C.ar    1  UNL1        0.0180
     20 C         138.5353  140.6524  160.1981 C.ar    1  UNL1        0.0382
     21 C         138.9830  139.3813  159.5393 C.ar    1  UNL1        0.1386
     22 C         139.5300  138.2584  160.3699 C.ar    1  UNL1        0.0382
     23 C         139.6294  138.4066  161.8592 C.ar    1  UNL1        0.0180
     24 O         138.8836  139.2331  158.0499 O.3     1  UNL1       -0.4754
     25 C         140.0902  138.8324  157.2540 C.3     1  UNL1        0.2068
     26 C         141.3957  139.5411  157.4628 C.3     1  UNL1        0.0646
     27 C         142.5759  138.7937  158.0088 C.3     1  UNL1        0.0759
     28 N         143.0951  139.1100  159.3801 N.3     1  UNL1       -0.2726
     29 C         143.4948  140.5372  159.6113 C.3     1  UNL1        0.0721
     30 C         144.0440  141.1643  160.8585 C.3     1  UNL1        0.0173
     31 C         144.3292  140.5191  162.1821 C.3     1  UNL1        0.0015
     32 C         144.1356  139.0874  162.5859 C.3     1  UNL1        0.0015
     33 C         143.6089  137.9474  161.7655 C.3     1  UNL1        0.0173
     34 C         143.1459  137.9576  160.3387 C.3     1  UNL1        0.0721
@<TRIPOS>BOND
     1     1     2    2
     2     2    10    1
     3    10    11   ar
     4    11    12   ar
     5    12    13   ar
     6    13    14    1
     7    13    15   ar
     8    15    16   ar
     9    16    17    1
    10     2     3   am
    11     3     4    1
    12     4     5    1
    13     5     6    1
    14     6    18    1
    15    18    19   ar
    16    19    20   ar
    17    20    21   ar
    18    21    24    1
    19    24    25    1
    20    25    26    1
    21    26    27    1
    22    27    28    1
    23    28    29    1
    24    29    30    1
    25    30    31    1
    26    31    32    1
    27    32    33    1
    28    33    34    1
    29    21    22   ar
    30    22    23   ar
    31     6     7   am
    32     7     8    2
    33     7     9    1
    34    16    10   ar
    35     9     3    1
    36    23    18   ar
    37    34    28    1
@<TRIPOS>MOLECULE
*****
 34 37 0 0 0
SMALL
GASTEIGER

@<TRIPOS>ATOM
      1 O         138.5583  139.5470  169.3075 O.2     1  UNL1       -0.2698
      2 C         139.5551  140.2527  168.4366 C.2     1  UNL1        0.2516
      3 N         139.5012  140.0845  166.9470 N.am    1  UNL1       -0.2659
      4 C         138.4507  139.2107  166.3284 C.3     1  UNL1        0.1160
      5 C         138.3969  139.0425  164.8387 C.3     1  UNL1        0.1197
      6 N         139.3936  139.7482  163.9678 N.am    1  UNL1       -0.2555
      7 C         140.4442  140.6221  164.5865 C.2     1  UNL1        0.2497
      8 O         141.4410  141.3278  163.7155 O.2     1  UNL1       -0.2727
      9 C         140.4980  140.7902  166.0761 C.3     1  UNL1        0.1799
     10 C         140.6056  141.1265  169.0552 C.ar    1  UNL1        0.0811
     11 C         140.3040  142.5653  169.3535 C.ar    1  UNL1        0.0091
     12 C         141.3547  143.4392  169.9722 C.ar    1  UNL1        0.0299
     13 C         142.7068  142.8742  170.2925 C.ar    1  UNL1        0.1424
     14 F         143.7573  143.7480  170.9111 F       1  UNL1       -0.2041
     15 C         143.0083  141.4354  169.9942 C.ar    1  UNL1        0.0594
     16 C         141.9577  140.5616  169.3755 C.ar    1  UNL1        0.1467
     17 F         142.2592  139.1229  169.0772 F       1  UNL1       -0.2039
     18 C         139.3398  139.5801  162.4783 C.ar    1  UNL1        0.0541
     19 C         139.9321  138.3590  161.8395 C.ar    1  UNL1        0.0180
     20 C         139.8783  138.1908  160.3499 C.ar    1  UNL1        0.0382
     21 C         139.2322  139.2437  159.4991 C.ar    1  UNL1        0.1386
     22 C         138.6399  140.4649  160.1379 C.ar    1  UNL1        0.0382
     23 C         138.6937  140.6330  161.6275 C.ar    1  UNL1        0.0180
     24 O         139.1784  139.0756  158.0095 O.3     1  UNL1       -0.4754
     25 C         139.7297  137.8335  157.3746 C.3     1  UNL1        0.2068
     26 C         141.0983  137.8490  156.7607 C.3     1  UNL1        0.0646
     27 C         141.4286  136.9074  155.6408 C.3     1  UNL1        0.0759
     28 N         141.8836  135.5107  155.9448 N.3     1  UNL1       -0.2726
     29 C         142.9264  135.3846  157.0156 C.3     1  UNL1        0.0721
     30 C         143.5788  134.1414  157.5439 C.3     1  UNL1        0.0173
     31 C         143.3495  132.7175  157.1318 C.3     1  UNL1        0.0015
     32 C         142.4112  132.1850  156.0897 C.3     1  UNL1        0.0015
     33 C         141.4704  132.9449  155.2023 C.3     1  UNL1        0.0173
     34 C         141.2357  134.4250  155.1379 C.3     1  UNL1        0.0721
@<TRIPOS>BOND
     1     1     2    2
     2     2    10    1
     3    10    11   ar
     4    11    12   ar
     5    12    13   ar
     6    13    14    1
     7    13    15   ar
     8    15    16   ar
     9    16    17    1
    10     2     3   am
    11     3     4    1
    12     4     5    1
    13     5     6    1
    14     6    18    1
    15    18    19   ar
    16    19    20   ar
    17    20    21   ar
    18    21    24    1
    19    24    25    1
    20    25    26    1
    21    26    27    1
    22    27    28    1
    23    28    29    1
    24    29    30    1
    25    30    31    1
    26    31    32    1
    27    32    33    1
    28    33    34    1
    29    21    22   ar
    30    22    23   ar
    31     6     7   am
    32     7     8    2
    33     7     9    1
    34    16    10   ar
    35     9     3    1
    36    23    18   ar
    37    34    28    1
@<TRIPOS>MOLECULE
*****
 34 37 0 0 0
SMALL
GASTEIGER

@<TRIPOS>ATOM
      1 O         138.4526  139.6705  156.9478 O.2     1  UNL1       -0.2698
      2 C         139.4830  138.9919  157.8010 C.2     1  UNL1        0.2516
      3 N         139.3757  139.0509  159.2960 N.am    1  UNL1       -0.2659
      4 C         138.2381  139.7884  159.9378 C.3     1  UNL1        0.1160
      5 C         138.1308  139.8474  161.4328 C.3     1  UNL1        0.1197
      6 N         139.1611  139.1689  162.2860 N.am    1  UNL1       -0.2555
      7 C         140.2988  138.4313  161.6443 C.2     1  UNL1        0.2497
      8 O         141.3291  137.7528  162.4975 O.2     1  UNL1       -0.2727
      9 C         140.4060  138.3724  160.1492 C.3     1  UNL1        0.1799
     10 C         140.6206  138.2544  157.1592 C.ar    1  UNL1        0.0811
     11 C         140.3768  136.9332  156.4923 C.ar    1  UNL1        0.0091
     12 C         141.5145  136.1957  155.8505 C.ar    1  UNL1        0.0299
     13 C         142.8960  136.7795  155.8758 C.ar    1  UNL1        0.1424
     14 F         144.0336  136.0420  155.2341 F       1  UNL1       -0.2041
     15 C         143.1398  138.1007  156.5427 C.ar    1  UNL1        0.0594
     16 C         142.0021  138.8382  157.1845 C.ar    1  UNL1        0.1467
     17 F         142.2459  140.1594  157.8514 F       1  UNL1       -0.2039
     18 C         139.0538  139.2278  163.7810 C.ar    1  UNL1        0.0541
     19 C         138.7174  137.9898  164.5582 C.ar    1  UNL1        0.0180
     20 C         138.6101  138.0487  166.0532 C.ar    1  UNL1        0.0382
     21 C         138.8392  139.3457  166.7710 C.ar    1  UNL1        0.1386
     22 C         139.1756  140.5839  165.9938 C.ar    1  UNL1        0.0382
     23 C         139.2829  140.5248  164.4988 C.ar    1  UNL1        0.0180
     24 O         138.7319  139.4048  168.2660 O.3     1  UNL1       -0.4754
     25 C         139.6342  140.3132  169.0473 C.3     1  UNL1        0.2068
     26 C         140.9757  139.8239  169.5069 C.3     1  UNL1        0.0646
     27 C         142.2230  140.5319  169.0677 C.3     1  UNL1        0.0759
     28 N         142.5782  140.5919  167.6116 N.3     1  UNL1       -0.2726
     29 C         142.9224  141.9523  167.0813 C.3     1  UNL1        0.0721
     30 C         143.3156  142.3403  165.6867 C.3     1  UNL1        0.0173
     31 C         143.4617  141.4641  164.4782 C.3     1  UNL1        0.0015
     32 C         143.2508  139.9832  164.3655 C.3     1  UNL1        0.0015
     33 C         142.8416  139.0130  165.4337 C.3     1  UNL1        0.0173
     34 C         142.5423  139.2839  166.8784 C.3     1  UNL1        0.0721
@<TRIPOS>BOND
     1     1     2    2
     2     2    10    1
     3    10    11   ar
     4    11    12   ar
     5    12    13   ar
     6    13    14    1
     7    13    15   ar
     8    15    16   ar
     9    16    17    1
    10     2     3   am
    11     3     4    1
    12     4     5    1
    13     5     6    1
    14     6    18    1
    15    18    19   ar
    16    19    20   ar
    17    20    21   ar
    18    21    24    1
    19    24    25    1
    20    25    26    1
    21    26    27    1
    22    27    28    1
    23    28    29    1
    24    29    30    1
    25    30    31    1
    26    31    32    1
    27    32    33    1
    28    33    34    1
    29    21    22   ar
    30    22    23   ar
    31     6     7   am
    32     7     8    2
    33     7     9    1
    34    16    10   ar
    35     9     3    1
    36    23    18   ar
    37    34    28    1
@<TRIPOS>MOLECULE
*****
 34 37 0 0 0
SMALL
GASTEIGER

@<TRIPOS>ATOM
      1 O         144.8951  137.3508  155.3752 O.2     1  UNL1       -0.2698
      2 C         143.6207  136.9820  156.0752 C.2     1  UNL1        0.2516
      3 N         142.8907  138.0061  156.8929 N.am    1  UNL1       -0.2659
      4 C         143.4351  139.3989  157.0104 C.3     1  UNL1        0.1160
      5 C         142.7051  140.4230  157.8280 C.3     1  UNL1        0.1197
      6 N         141.4308  140.0543  158.5281 N.am    1  UNL1       -0.2555
      7 C         140.8863  138.6615  158.4105 C.2     1  UNL1        0.2497
      8 O         139.6120  138.2927  159.1105 O.2     1  UNL1       -0.2727
      9 C         141.6164  137.6374  157.5929 C.3     1  UNL1        0.1799
     10 C         143.0763  135.5893  155.9577 C.ar    1  UNL1        0.0811
     11 C         143.5070  134.5312  156.9298 C.ar    1  UNL1        0.0091
     12 C         142.9625  133.1384  156.8122 C.ar    1  UNL1        0.0299
     13 C         141.9874  132.8038  155.7226 C.ar    1  UNL1        0.1424
     14 F         141.4430  131.4111  155.6050 F       1  UNL1       -0.2041
     15 C         141.5568  133.8619  154.7505 C.ar    1  UNL1        0.0594
     16 C         142.1013  135.2547  154.8681 C.ar    1  UNL1        0.1467
     17 F         141.6706  136.3128  153.8961 F       1  UNL1       -0.2039
     18 C         140.7008  141.0783  159.3456 C.ar    1  UNL1        0.0541
     19 C         139.3474  141.5582  158.9122 C.ar    1  UNL1        0.0180
     20 C         138.6174  142.5823  159.7297 C.ar    1  UNL1        0.0382
     21 C         139.2408  143.1264  160.9808 C.ar    1  UNL1        0.1386
     22 C         140.5943  142.6465  161.4143 C.ar    1  UNL1        0.0382
     23 C         141.3243  141.6224  160.5967 C.ar    1  UNL1        0.0180
     24 O         138.5109  144.1505  161.7984 O.3     1  UNL1       -0.4754
     25 C         138.8588  144.3420  163.2448 C.3     1  UNL1        0.2068
     26 C         138.3914  143.3483  164.2667 C.3     1  UNL1        0.0646
     27 C         137.4572  142.2449  163.8672 C.3     1  UNL1        0.0759
     28 N         137.9145  140.8174  163.9242 N.3     1  UNL1       -0.2726
     29 C         138.0157  140.1133  162.6036 C.3     1  UNL1        0.0721
     30 C         138.4375  138.7006  162.3269 C.3     1  UNL1        0.0173
     31 C         138.8624  137.6434  163.3024 C.3     1  UNL1        0.0015
     32 C         138.9703  137.7375  164.7955 C.3     1  UNL1        0.0015
     33 C         138.6801  138.9122  165.6820 C.3     1  UNL1        0.0173
     34 C         138.2102  140.2829  165.2941 C.3     1  UNL1        0.0721
@<TRIPOS>BOND
     1     1     2    2
     2     2    10    1
     3    10    11   ar
     4    11    12   ar
     5    12    13   ar
     6    13    14    1
     7    13    15   ar
     8    15    16   ar
     9    16    17    1
    10     2     3   am
    11     3     4    1
    12     4     5    1
    13     5     6    1
    14     6    18    1
    15    18    19   ar
    16    19    20   ar
    17    20    21   ar
    18    21    24    1
    19    24    25    1
    20    25    26    1
    21    26    27    1
    22    27    28    1
    23    28    29    1
    24    29    30    1
    25    30    31    1
    26    31    32    1
    27    32    33    1
    28    33    34    1
    29    21    22   ar
    30    22    23   ar
    31     6     7   am
    32     7     8    2
    33     7     9    1
    34    16    10   ar
    35     9     3    1
    36    23    18   ar
    37    34    28    1
@<TRIPOS>MOLECULE
*****
 34 37 0 0 0
SMALL
GASTEIGER

@<TRIPOS>ATOM
      1 O         144.8942  137.1668  155.4373 O.2     1  UNL1       -0.2698
      2 C         143.4971  136.8754  155.8992 C.2     1  UNL1        0.2516
      3 N         142.7591  137.8787  156.7353 N.am    1  UNL1       -0.2659
      4 C         143.4182  139.1731  157.1094 C.3     1  UNL1        0.1160
      5 C         142.6802  140.1763  157.9455 C.3     1  UNL1        0.1197
      6 N         141.2831  139.8851  158.4074 N.am    1  UNL1       -0.2555
      7 C         140.6240  138.5906  158.0333 C.2     1  UNL1        0.2497
      8 O         139.2270  138.2993  158.4952 O.2     1  UNL1       -0.2727
      9 C         141.3621  137.5874  157.1972 C.3     1  UNL1        0.1799
     10 C         142.8380  135.5810  155.5251 C.ar    1  UNL1        0.0811
     11 C         142.1327  135.4517  154.2076 C.ar    1  UNL1        0.0091
     12 C         141.4736  134.1572  153.8335 C.ar    1  UNL1        0.0299
     13 C         141.5199  132.9920  154.7770 C.ar    1  UNL1        0.1424
     14 F         140.8608  131.6976  154.4029 F       1  UNL1       -0.2041
     15 C         142.2252  133.1212  156.0945 C.ar    1  UNL1        0.0594
     16 C         142.8843  134.4158  156.4685 C.ar    1  UNL1        0.1467
     17 F         143.5896  134.5450  157.7860 F       1  UNL1       -0.2039
     18 C         140.5452  140.8882  159.2434 C.ar    1  UNL1        0.0541
     19 C         140.7305  140.9056  160.7318 C.ar    1  UNL1        0.0180
     20 C         139.9925  141.9088  161.5679 C.ar    1  UNL1        0.0382
     21 C         139.0692  142.8946  160.9155 C.ar    1  UNL1        0.1386
     22 C         138.8838  142.8773  159.4271 C.ar    1  UNL1        0.0382
     23 C         139.6218  141.8740  158.5911 C.ar    1  UNL1        0.0180
     24 O         138.3311  143.8978  161.7515 O.3     1  UNL1       -0.4754
     25 C         137.7527  143.4912  163.0744 C.3     1  UNL1        0.2068
     26 C         138.2444  144.1341  164.3374 C.3     1  UNL1        0.0646
     27 C         139.2472  143.4253  165.1987 C.3     1  UNL1        0.0759
     28 N         140.7144  143.6451  164.9775 N.3     1  UNL1       -0.2726
     29 C         141.6291  142.6831  165.6761 C.3     1  UNL1        0.0721
     30 C         143.1283  142.6363  165.6567 C.3     1  UNL1        0.0173
     31 C         144.0829  143.5397  164.9340 C.3     1  UNL1        0.0015
     32 C         143.7743  144.7132  164.0521 C.3     1  UNL1        0.0015
     33 C         142.4347  145.2730  163.6752 C.3     1  UNL1        0.0173
     34 C         141.0729  144.7976  164.0871 C.3     1  UNL1        0.0721
@<TRIPOS>BOND
     1     1     2    2
     2     2    10    1
     3    10    11   ar
     4    11    12   ar
     5    12    13   ar
     6    13    14    1
     7    13    15   ar
     8    15    16   ar
     9    16    17    1
    10     2     3   am
    11     3     4    1
    12     4     5    1
    13     5     6    1
    14     6    18    1
    15    18    19   ar
    16    19    20   ar
    17    20    21   ar
    18    21    24    1
    19    24    25    1
    20    25    26    1
    21    26    27    1
    22    27    28    1
    23    28    29    1
    24    29    30    1
    25    30    31    1
    26    31    32    1
    27    32    33    1
    28    33    34    1
    29    21    22   ar
    30    22    23   ar
    31     6     7   am
    32     7     8    2
    33     7     9    1
    34    16    10   ar
    35     9     3    1
    36    23    18   ar
    37    34    28    1
@<TRIPOS>MOLECULE
*****
 34 37 0 0 0
SMALL
GASTEIGER

@<TRIPOS>ATOM
      1 O         143.3285  138.6567  168.3329 O.2     1  UNL1       -0.2698
      2 C         142.3141  139.5639  167.7021 C.2     1  UNL1        0.2516
      3 N         142.0550  139.4883  166.2265 N.am    1  UNL1       -0.2659
      4 C         142.8104  138.5054  165.3819 C.3     1  UNL1        0.1160
      5 C         142.5513  138.4298  163.9063 C.3     1  UNL1        0.1197
      6 N         141.5370  139.3370  163.2754 N.am    1  UNL1       -0.2555
      7 C         140.7816  140.3199  164.1201 C.2     1  UNL1        0.2497
      8 O         139.7673  141.2272  163.4892 O.2     1  UNL1       -0.2727
      9 C         141.0407  140.3955  165.5956 C.3     1  UNL1        0.1799
     10 C         141.5587  140.5468  168.5467 C.ar    1  UNL1        0.0811
     11 C         140.2460  140.1568  169.1586 C.ar    1  UNL1        0.0091
     12 C         139.4906  141.1397  170.0032 C.ar    1  UNL1        0.0299
     13 C         140.0481  142.5127  170.2359 C.ar    1  UNL1        0.1424
     14 F         139.2928  143.4955  171.0805 F       1  UNL1       -0.2041
     15 C         141.3609  142.9027  169.6240 C.ar    1  UNL1        0.0594
     16 C         142.1162  141.9197  168.7794 C.ar    1  UNL1        0.1467
     17 F         143.4290  142.3098  168.1675 F       1  UNL1       -0.2039
     18 C         141.2780  139.2614  161.7999 C.ar    1  UNL1        0.0541
     19 C         142.2800  139.8189  160.8330 C.ar    1  UNL1        0.0180
     20 C         142.0210  139.7433  159.3574 C.ar    1  UNL1        0.0382
     21 C         140.7599  139.1101  158.8488 C.ar    1  UNL1        0.1386
     22 C         139.7578  138.5526  159.8158 C.ar    1  UNL1        0.0382
     23 C         140.0169  138.6282  161.2913 C.ar    1  UNL1        0.0180
     24 O         140.5009  139.0345  157.3733 O.3     1  UNL1       -0.4754
     25 C         141.3998  138.2156  156.4951 C.3     1  UNL1        0.2068
     26 C         141.5588  136.7455  156.7477 C.3     1  UNL1        0.0646
     27 C         142.9260  136.1630  156.9511 C.3     1  UNL1        0.0759
     28 N         143.2130  134.7549  156.5211 N.3     1  UNL1       -0.2726
     29 C         142.7517  134.3891  155.1413 C.3     1  UNL1        0.0721
     30 C         142.8869  133.0768  154.4273 C.3     1  UNL1        0.0173
     31 C         143.5165  131.8065  154.9166 C.3     1  UNL1        0.0015
     32 C         144.1666  131.5344  156.2408 C.3     1  UNL1        0.0015
     33 C         144.3476  132.4656  157.4027 C.3     1  UNL1        0.0173
     34 C         143.9231  133.8989  157.5273 C.3     1  UNL1        0.0721
@<TRIPOS>BOND
     1     1     2    2
     2     2    10    1
     3    10    11   ar
     4    11    12   ar
     5    12    13   ar
     6    13    14    1
     7    13    15   ar
     8    15    16   ar
     9    16    17    1
    10     2     3   am
    11     3     4    1
    12     4     5    1
    13     5     6    1
    14     6    18    1
    15    18    19   ar
    16    19    20   ar
    17    20    21   ar
    18    21    24    1
    19    24    25    1
    20    25    26    1
    21    26    27    1
    22    27    28    1
    23    28    29    1
    24    29    30    1
    25    30    31    1
    26    31    32    1
    27    32    33    1
    28    33    34    1
    29    21    22   ar
    30    22    23   ar
    31     6     7   am
    32     7     8    2
    33     7     9    1
    34    16    10   ar
    35     9     3    1
    36    23    18   ar
    37    34    28    1
@<TRIPOS>MOLECULE
*****
 34 37 0 0 0
SMALL
GASTEIGER

@<TRIPOS>ATOM
      1 O         138.5882  139.5957  169.5413 O.2     1  UNL1       -0.2698
      2 C         139.5333  140.3306  168.6374 C.2     1  UNL1        0.2516
      3 N         139.4171  140.1805  167.1494 N.am    1  UNL1       -0.2659
      4 C         138.3561  139.2956  166.5654 C.3     1  UNL1        0.1160
      5 C         138.2400  139.1455  165.0774 C.3     1  UNL1        0.1197
      6 N         139.1849  139.8803  164.1735 N.am    1  UNL1       -0.2555
      7 C         140.2460  140.7652  164.7575 C.2     1  UNL1        0.2497
      8 O         141.1910  141.5000  163.8536 O.2     1  UNL1       -0.2727
      9 C         140.3621  140.9153  166.2455 C.3     1  UNL1        0.1799
     10 C         140.5943  141.2155  169.2214 C.ar    1  UNL1        0.0811
     11 C         140.2971  142.6590  169.5005 C.ar    1  UNL1        0.0091
     12 C         141.3582  143.5439  170.0845 C.ar    1  UNL1        0.0299
     13 C         142.7166  142.9852  170.3893 C.ar    1  UNL1        0.1424
     14 F         143.7776  143.8701  170.9733 F       1  UNL1       -0.2041
     15 C         143.0138  141.5417  170.1102 C.ar    1  UNL1        0.0594
     16 C         141.9526  140.6569  169.5262 C.ar    1  UNL1        0.1467
     17 F         142.2498  139.2133  169.2471 F       1  UNL1       -0.2039
     18 C         139.0688  139.7302  162.6856 C.ar    1  UNL1        0.0541
     19 C         138.0232  140.4989  161.9335 C.ar    1  UNL1        0.0180
     20 C         137.9070  140.3489  160.4456 C.ar    1  UNL1        0.0382
     21 C         138.8366  139.4300  159.7096 C.ar    1  UNL1        0.1386
     22 C         139.8823  138.6612  160.4617 C.ar    1  UNL1        0.0382
     23 C         139.9984  138.8114  161.9496 C.ar    1  UNL1        0.0180
     24 O         138.7205  139.2799  158.2217 O.3     1  UNL1       -0.4754
     25 C         139.9179  138.8771  157.4130 C.3     1  UNL1        0.2068
     26 C         140.9349  139.9055  157.0153 C.3     1  UNL1        0.0646
     27 C         140.5509  141.3541  156.9505 C.3     1  UNL1        0.0759
     28 N         140.8239  142.2553  158.1181 N.3     1  UNL1       -0.2726
     29 C         141.6712  141.6691  159.2084 C.3     1  UNL1        0.0721
     30 C         142.1174  142.3065  160.4910 C.3     1  UNL1        0.0173
     31 C         141.8266  143.6871  160.9999 C.3     1  UNL1        0.0015
     32 C         141.0178  144.7716  160.3521 C.3     1  UNL1        0.0015
     33 C         140.3000  144.7433  159.0353 C.3     1  UNL1        0.0173
     34 C         140.2138  143.6233  158.0411 C.3     1  UNL1        0.0721
@<TRIPOS>BOND
     1     1     2    2
     2     2    10    1
     3    10    11   ar
     4    11    12   ar
     5    12    13   ar
     6    13    14    1
     7    13    15   ar
     8    15    16   ar
     9    16    17    1
    10     2     3   am
    11     3     4    1
    12     4     5    1
    13     5     6    1
    14     6    18    1
    15    18    19   ar
    16    19    20   ar
    17    20    21   ar
    18    21    24    1
    19    24    25    1
    20    25    26    1
    21    26    27    1
    22    27    28    1
    23    28    29    1
    24    29    30    1
    25    30    31    1
    26    31    32    1
    27    32    33    1
    28    33    34    1
    29    21    22   ar
    30    22    23   ar
    31     6     7   am
    32     7     8    2
    33     7     9    1
    34    16    10   ar
    35     9     3    1
    36    23    18   ar
    37    34    28    1
@<TRIPOS>MOLECULE
*****
 34 37 0 0 0
SMALL
GASTEIGER

@<TRIPOS>ATOM
      1 O         143.7834  139.0630  155.0466 O.2     1  UNL1       -0.2698
      2 C         143.2813  138.1604  156.1343 C.2     1  UNL1        0.2516
      3 N         143.2279  138.6509  157.5509 N.am    1  UNL1       -0.2659
      4 C         143.6765  140.0440  157.8796 C.3     1  UNL1        0.1160
      5 C         143.6231  140.5345  159.2962 C.3     1  UNL1        0.1197
      6 N         143.1210  139.6320  160.3840 N.am    1  UNL1       -0.2555
      7 C         142.6723  138.2388  160.0552 C.2     1  UNL1        0.2497
      8 O         142.1702  137.3363  161.1430 O.2     1  UNL1       -0.2727
      9 C         142.7258  137.7484  158.6387 C.3     1  UNL1        0.1799
     10 C         142.8327  136.7673  155.8056 C.ar    1  UNL1        0.0811
     11 C         143.8124  135.6326  155.8550 C.ar    1  UNL1        0.0091
     12 C         143.3637  134.2394  155.5263 C.ar    1  UNL1        0.0299
     13 C         141.9353  133.9812  155.1482 C.ar    1  UNL1        0.1424
     14 F         141.4866  132.5881  154.8196 F       1  UNL1       -0.2041
     15 C         140.9556  135.1159  155.0989 C.ar    1  UNL1        0.0594
     16 C         141.4043  136.5090  155.4276 C.ar    1  UNL1        0.1467
     17 F         140.4246  137.6438  155.3782 F       1  UNL1       -0.2039
     18 C         143.0675  140.1225  161.8004 C.ar    1  UNL1        0.0541
     19 C         141.8041  140.7264  162.3379 C.ar    1  UNL1        0.0180
     20 C         141.7505  141.2169  163.7544 C.ar    1  UNL1        0.0382
     21 C         142.9606  141.1035  164.6335 C.ar    1  UNL1        0.1386
     22 C         144.2242  140.4996  164.0961 C.ar    1  UNL1        0.0382
     23 C         144.2776  140.0091  162.6795 C.ar    1  UNL1        0.0180
     24 O         142.9072  141.5941  166.0500 O.3     1  UNL1       -0.4754
     25 C         141.5957  141.6483  166.7759 C.3     1  UNL1        0.2068
     26 C         141.0254  140.4033  167.3884 C.3     1  UNL1        0.0646
     27 C         139.6295  139.9721  167.0489 C.3     1  UNL1        0.0759
     28 N         139.2884  139.5739  165.6435 N.3     1  UNL1       -0.2726
     29 C         138.3490  140.4906  164.9173 C.3     1  UNL1        0.0721
     30 C         137.8209  140.3715  163.5183 C.3     1  UNL1        0.0173
     31 C         138.1018  139.3065  162.5002 C.3     1  UNL1        0.0015
     32 C         138.9801  138.0974  162.6294 C.3     1  UNL1        0.0015
     33 C         139.7945  137.6548  163.8088 C.3     1  UNL1        0.0173
     34 C         139.9316  138.3120  165.1501 C.3     1  UNL1        0.0721
@<TRIPOS>BOND
     1     1     2    2
     2     2    10    1
     3    10    11   ar
     4    11    12   ar
     5    12    13   ar
     6    13    14    1
     7    13    15   ar
     8    15    16   ar
     9    16    17    1
    10     2     3   am
    11     3     4    1
    12     4     5    1
    13     5     6    1
    14     6    18    1
    15    18    19   ar
    16    19    20   ar
    17    20    21   ar
    18    21    24    1
    19    24    25    1
    20    25    26    1
    21    26    27    1
    22    27    28    1
    23    28    29    1
    24    29    30    1
    25    30    31    1
    26    31    32    1
    27    32    33    1
    28    33    34    1
    29    21    22   ar
    30    22    23   ar
    31     6     7   am
    32     7     8    2
    33     7     9    1
    34    16    10   ar
    35     9     3    1
    36    23    18   ar
    37    34    28    1
@<TRIPOS>MOLECULE
*****
 34 37 0 0 0
SMALL
GASTEIGER

@<TRIPOS>ATOM
      1 O         142.2437  139.2047  156.9393 O.2     1  UNL1       -0.2698
      2 C         140.8283  139.0378  157.4071 C.2     1  UNL1        0.2516
      3 N         140.5155  139.0624  158.8740 N.am    1  UNL1       -0.2659
      4 C         141.6180  139.2540  159.8729 C.3     1  UNL1        0.1160
      5 C         141.3052  139.2786  161.3398 C.3     1  UNL1        0.1197
      6 N         139.8899  139.1117  161.8077 N.am    1  UNL1       -0.2555
      7 C         138.7873  138.9202  160.8088 C.2     1  UNL1        0.2497
      8 O         137.3720  138.7533  161.2767 O.2     1  UNL1       -0.2727
      9 C         139.1002  138.8955  159.3420 C.3     1  UNL1        0.1799
     10 C         139.7258  138.8462  156.4083 C.ar    1  UNL1        0.0811
     11 C         139.4720  137.4889  155.8225 C.ar    1  UNL1        0.0091
     12 C         138.3694  137.2974  154.8236 C.ar    1  UNL1        0.0299
     13 C         137.5207  138.4632  154.4106 C.ar    1  UNL1        0.1424
     14 F         136.4182  138.2717  153.4118 F       1  UNL1       -0.2041
     15 C         137.7745  139.8205  154.9965 C.ar    1  UNL1        0.0594
     16 C         138.8772  140.0120  155.9953 C.ar    1  UNL1        0.1467
     17 F         139.1310  141.3693  156.5812 F       1  UNL1       -0.2039
     18 C         139.5771  139.1364  163.2744 C.ar    1  UNL1        0.0541
     19 C         139.5140  137.8538  164.0495 C.ar    1  UNL1        0.0180
     20 C         139.2012  137.8783  165.5164 C.ar    1  UNL1        0.0382
     21 C         138.9514  139.1857  166.2081 C.ar    1  UNL1        0.1386
     22 C         139.0145  140.4684  165.4330 C.ar    1  UNL1        0.0382
     23 C         139.3273  140.4437  163.9662 C.ar    1  UNL1        0.0180
     24 O         138.6386  139.2104  167.6749 O.3     1  UNL1       -0.4754
     25 C         139.4133  140.1099  168.5918 C.3     1  UNL1        0.2068
     26 C         140.9125  140.0613  168.5998 C.3     1  UNL1        0.0646
     27 C         141.7011  141.1246  167.8947 C.3     1  UNL1        0.0759
     28 N         142.5516  140.7675  166.7118 N.3     1  UNL1       -0.2726
     29 C         142.5649  139.3158  166.3344 C.3     1  UNL1        0.0721
     30 C         143.3062  138.6473  165.2147 C.3     1  UNL1        0.0173
     31 C         144.2172  139.2654  164.1960 C.3     1  UNL1        0.0015
     32 C         144.6119  140.7047  164.0451 C.3     1  UNL1        0.0015
     33 C         144.1931  141.8813  164.8759 C.3     1  UNL1        0.0173
     34 C         143.2762  141.9092  166.0627 C.3     1  UNL1        0.0721
@<TRIPOS>BOND
     1     1     2    2
     2     2    10    1
     3    10    11   ar
     4    11    12   ar
     5    12    13   ar
     6    13    14    1
     7    13    15   ar
     8    15    16   ar
     9    16    17    1
    10     2     3   am
    11     3     4    1
    12     4     5    1
    13     5     6    1
    14     6    18    1
    15    18    19   ar
    16    19    20   ar
    17    20    21   ar
    18    21    24    1
    19    24    25    1
    20    25    26    1
    21    26    27    1
    22    27    28    1
    23    28    29    1
    24    29    30    1
    25    30    31    1
    26    31    32    1
    27    32    33    1
    28    33    34    1
    29    21    22   ar
    30    22    23   ar
    31     6     7   am
    32     7     8    2
    33     7     9    1
    34    16    10   ar
    35     9     3    1
    36    23    18   ar
    37    34    28    1
