@<TRIPOS>MOLECULE
*****
 39 44 0 0 0
SMALL
GASTEIGER

@<TRIPOS>ATOM
      1 C         144.4626  139.7892  163.3505 C.3     1  UNL1        0.0700
      2 C         144.1098  139.3977  164.7549 C.3     1  UNL1        0.0193
      3 C         142.9829  138.4402  165.0060 C.3     1  UNL1        0.0286
      4 C         142.2086  137.8741  163.8526 C.3     1  UNL1        0.0932
      5 C         142.5614  138.2656  162.4482 C.3     1  UNL1        0.0286
      6 C         143.6884  139.2232  162.1972 C.3     1  UNL1        0.0193
      7 O         142.8179  138.3953  163.6654 O.3     1  UNL1       -0.3572
      8 C         143.8369  139.2612  163.4384 C.3     1  UNL1        0.1562
      9 N         145.5895  140.7468  163.0995 N.3     1  UNL1       -0.2926
     10 H         146.4198  140.3450  163.5350 H       1  UNL1        0.1236
     11 C         145.4909  142.1640  163.5809 C.3     1  UNL1        0.1152
     12 O         140.5272  145.6486  158.6850 O.2     1  UNL1       -0.2707
     13 C         140.9264  145.2735  160.0814 C.2     1  UNL1        0.2718
     14 C         140.0702  145.6849  161.2423 C.3     1  UNL1        0.2898
     15 O         140.4694  145.3098  162.6387 O.3     1  UNL1       -0.4628
     16 C         141.7247  144.5234  162.8743 C.ar    1  UNL1        0.1708
     17 C         142.1239  144.1483  164.2707 C.ar    1  UNL1        0.0411
     18 C         143.3792  143.3619  164.5063 C.ar    1  UNL1        0.0193
     19 C         144.2355  142.9505  163.3454 C.ar    1  UNL1        0.0765
     20 N         143.8364  143.3255  161.9490 N.ar    1  UNL1       -0.2304
     21 C         142.5809  144.1120  161.7134 C.ar    1  UNL1        0.1682
     22 N         142.1818  144.4871  160.3170 N.am    1  UNL1       -0.2639
     23 H         142.7437  144.2171  159.5551 H       1  UNL1        0.1565
     24 C         141.0817  136.9166  164.1036 C.3     1  UNL1        0.0319
     25 C         139.7338  137.4345  164.5097 C.3     1  UNL1        0.0304
     26 C         139.0200  138.4288  163.6427 C.ar    1  UNL1       -0.0014
     27 C         138.4073  137.9896  162.3458 C.ar    1  UNL1        0.0179
     28 C         137.6935  138.9839  161.4788 C.ar    1  UNL1        0.0986
     29 N         137.5923  140.4174  161.9085 N.ar    1  UNL1       -0.2423
     30 C         138.2050  140.8567  163.2052 C.ar    1  UNL1        0.0986
     31 C         138.1039  142.2903  163.6349 C.ar    1  UNL1        0.0260
     32 C         138.7166  142.7295  164.9318 C.ar    1  UNL1        0.0920
     33 C         139.4304  141.7352  165.7988 C.ar    1  UNL1        0.1028
     34 N         139.5315  140.3017  165.3691 N.ar    1  UNL1       -0.2427
     35 C         138.9189  139.8624  164.0724 C.ar    1  UNL1        0.0949
     36 C         138.6155  144.1631  165.3615 C.3     1  UNL1        0.4201
     37 F         138.5143  145.5967  165.7912 F       1  UNL1       -0.1658
     38 F         139.6407  143.9157  166.4281 F       1  UNL1       -0.1658
     39 F         137.5903  144.4105  164.2948 F       1  UNL1       -0.1658
@<TRIPOS>BOND
     1    12    13    2
     2    13    14    1
     3    14    15    1
     4    15    16    1
     5    16    17   ar
     6    17    18   ar
     7    18    19   ar
     8    19    11    1
     9    11     9    1
    10     9     1    1
    11     1     2    1
    12     2     3    1
    13     3     4    1
    14     4    24    1
    15    24    25    1
    16    25    26    1
    17    26    27   ar
    18    27    28   ar
    19    28    29   ar
    20    29    30   ar
    21    30    31   ar
    22    31    32   ar
    23    32    36    1
    24    36    37    1
    25    36    38    1
    26    36    39    1
    27    32    33   ar
    28    33    34   ar
    29    34    35   ar
    30     4     5    1
    31     5     6    1
    32     4     7    1
    33     7     8    1
    34    19    20   ar
    35    20    21   ar
    36    21    22    1
    37    22    13   am
    38    21    16   ar
    39     6     1    1
    40     8     1    1
    41    35    26   ar
    42    35    30   ar
    43     9    10    1
    44    22    23    1
@<TRIPOS>MOLECULE
*****
 39 44 0 0 0
SMALL
GASTEIGER

@<TRIPOS>ATOM
      1 C         137.8598  140.1247  162.1180 C.3     1  UNL1        0.0700
      2 C         137.6500  140.4911  163.5573 C.3     1  UNL1        0.0193
      3 C         137.6445  141.9328  163.9712 C.3     1  UNL1        0.0286
      4 C         137.8489  143.0083  162.9457 C.3     1  UNL1        0.0932
      5 C         138.0587  142.6419  161.5063 C.3     1  UNL1        0.0286
      6 C         138.0642  141.2001  161.0925 C.3     1  UNL1        0.0193
      7 O         137.8599  142.2321  162.6711 O.3     1  UNL1       -0.3572
      8 C         137.8649  140.9285  162.2968 C.3     1  UNL1        0.1562
      9 N         137.8653  138.6830  161.7041 N.3     1  UNL1       -0.2926
     10 H         137.4537  138.1543  162.4733 H       1  UNL1        0.1236
     11 C         139.1587  138.0071  161.3574 C.3     1  UNL1        0.1152
     12 O         145.9339  141.5941  162.7645 O.2     1  UNL1       -0.2707
     13 C         144.8831  140.6003  163.1621 C.2     1  UNL1        0.2718
     14 C         145.0398  139.8083  164.4263 C.3     1  UNL1        0.2898
     15 O         143.9890  138.8145  164.8238 O.3     1  UNL1       -0.4628
     16 C         142.7815  138.6126  163.9572 C.ar    1  UNL1        0.1708
     17 C         141.7306  137.6188  164.3548 C.ar    1  UNL1        0.0411
     18 C         140.5231  137.4169  163.4882 C.ar    1  UNL1        0.0193
     19 C         140.3663  138.2089  162.2240 C.ar    1  UNL1        0.0765
     20 N         141.4171  139.2028  161.8264 N.ar    1  UNL1       -0.2304
     21 C         142.6247  139.4046  162.6931 C.ar    1  UNL1        0.1682
     22 N         143.6756  140.3984  162.2955 N.am    1  UNL1       -0.2639
     23 H         143.5727  140.9183  161.4658 H       1  UNL1        0.1565
     24 C         137.8434  144.4500  163.3595 C.3     1  UNL1        0.0319
     25 C         138.9531  144.9898  164.2123 C.3     1  UNL1        0.0304
     26 C         140.3455  144.4534  164.0591 C.ar    1  UNL1       -0.0014
     27 C         141.1806  144.8604  162.8813 C.ar    1  UNL1        0.0179
     28 C         142.5730  144.3241  162.7281 C.ar    1  UNL1        0.0986
     29 N         143.1304  143.3808  163.7525 N.ar    1  UNL1       -0.2423
     30 C         142.2954  142.9738  164.9302 C.ar    1  UNL1        0.0986
     31 C         142.8527  142.0305  165.9547 C.ar    1  UNL1        0.0260
     32 C         142.0176  141.6236  167.1325 C.ar    1  UNL1        0.0920
     33 C         140.6252  142.1599  167.2857 C.ar    1  UNL1        0.1028
     34 N         140.0678  143.1032  166.2612 N.ar    1  UNL1       -0.2427
     35 C         140.9029  143.5101  165.0835 C.ar    1  UNL1        0.0949
     36 C         142.5750  140.6803  168.1569 C.3     1  UNL1        0.4201
     37 F         143.1324  139.7370  169.1814 F       1  UNL1       -0.1658
     38 F         141.8814  139.5354  167.4801 F       1  UNL1       -0.1658
     39 F         143.2686  141.8252  168.8337 F       1  UNL1       -0.1658
@<TRIPOS>BOND
     1    12    13    2
     2    13    14    1
     3    14    15    1
     4    15    16    1
     5    16    17   ar
     6    17    18   ar
     7    18    19   ar
     8    19    11    1
     9    11     9    1
    10     9     1    1
    11     1     2    1
    12     2     3    1
    13     3     4    1
    14     4    24    1
    15    24    25    1
    16    25    26    1
    17    26    27   ar
    18    27    28   ar
    19    28    29   ar
    20    29    30   ar
    21    30    31   ar
    22    31    32   ar
    23    32    36    1
    24    36    37    1
    25    36    38    1
    26    36    39    1
    27    32    33   ar
    28    33    34   ar
    29    34    35   ar
    30     4     5    1
    31     5     6    1
    32     4     7    1
    33     7     8    1
    34    19    20   ar
    35    20    21   ar
    36    21    22    1
    37    22    13   am
    38    21    16   ar
    39     6     1    1
    40     8     1    1
    41    35    26   ar
    42    35    30   ar
    43     9    10    1
    44    22    23    1
@<TRIPOS>MOLECULE
*****
 39 44 0 0 0
SMALL
GASTEIGER

@<TRIPOS>ATOM
      1 C         141.1551  137.5432  162.3826 C.3     1  UNL1        0.0700
      2 C         139.7581  138.0374  162.1499 C.3     1  UNL1        0.0193
      3 C         138.8105  138.1785  163.3041 C.3     1  UNL1        0.0286
      4 C         139.2599  137.8254  164.6910 C.3     1  UNL1        0.0932
      5 C         140.6569  137.3313  164.9237 C.3     1  UNL1        0.0286
      6 C         141.6045  137.1902  163.7694 C.3     1  UNL1        0.0193
      7 O         139.8149  137.7317  164.0901 O.3     1  UNL1       -0.3572
      8 C         140.6718  137.6041  163.0465 C.3     1  UNL1        0.1562
      9 N         142.1027  137.4021  161.2285 N.3     1  UNL1       -0.2926
     10 H         142.3592  136.4162  161.1769 H       1  UNL1        0.1236
     11 C         143.3826  138.1842  161.2089 C.3     1  UNL1        0.1152
     12 O         144.9561  144.0271  166.1216 O.2     1  UNL1       -0.2707
     13 C         144.4204  143.5444  164.8063 C.2     1  UNL1        0.2718
     14 C         143.8735  144.5266  163.8132 C.3     1  UNL1        0.2898
     15 O         143.3379  144.0439  162.4979 O.3     1  UNL1       -0.4628
     16 C         143.3490  142.5790  162.1756 C.ar    1  UNL1        0.1708
     17 C         142.8134  142.0963  160.8603 C.ar    1  UNL1        0.0411
     18 C         142.8246  140.6314  160.5381 C.ar    1  UNL1        0.0193
     19 C         143.3714  139.6491  161.5312 C.ar    1  UNL1        0.0765
     20 N         143.9071  140.1318  162.8465 N.ar    1  UNL1       -0.2304
     21 C         143.8959  141.5968  163.1687 C.ar    1  UNL1        0.1682
     22 N         144.4316  142.0795  164.4840 N.am    1  UNL1       -0.2639
     23 H         144.7905  141.4348  165.1358 H       1  UNL1        0.1565
     24 C         138.3123  137.9665  165.8451 C.3     1  UNL1        0.0319
     25 C         138.2451  139.2569  166.6069 C.3     1  UNL1        0.0304
     26 C         139.3934  140.2205  166.5529 C.ar    1  UNL1       -0.0014
     27 C         140.6070  139.9895  167.4038 C.ar    1  UNL1        0.0179
     28 C         141.7553  140.9530  167.3498 C.ar    1  UNL1        0.0986
     29 N         141.6901  142.1475  166.4449 N.ar    1  UNL1       -0.2423
     30 C         140.4767  142.3785  165.5940 C.ar    1  UNL1        0.0986
     31 C         140.4115  143.5730  164.6890 C.ar    1  UNL1        0.0260
     32 C         139.1979  143.8040  163.8381 C.ar    1  UNL1        0.0920
     33 C         138.0496  142.8405  163.8922 C.ar    1  UNL1        0.1028
     34 N         138.1148  141.6460  164.7971 N.ar    1  UNL1       -0.2427
     35 C         139.3283  141.4150  165.6480 C.ar    1  UNL1        0.0949
     36 C         139.1328  144.9985  162.9332 C.3     1  UNL1        0.4201
     37 F         139.0676  146.1930  162.0283 F       1  UNL1       -0.1658
     38 F         140.6064  145.2141  163.1117 F       1  UNL1       -0.1658
     39 F         137.6591  144.7829  162.7547 F       1  UNL1       -0.1658
@<TRIPOS>BOND
     1    12    13    2
     2    13    14    1
     3    14    15    1
     4    15    16    1
     5    16    17   ar
     6    17    18   ar
     7    18    19   ar
     8    19    11    1
     9    11     9    1
    10     9     1    1
    11     1     2    1
    12     2     3    1
    13     3     4    1
    14     4    24    1
    15    24    25    1
    16    25    26    1
    17    26    27   ar
    18    27    28   ar
    19    28    29   ar
    20    29    30   ar
    21    30    31   ar
    22    31    32   ar
    23    32    36    1
    24    36    37    1
    25    36    38    1
    26    36    39    1
    27    32    33   ar
    28    33    34   ar
    29    34    35   ar
    30     4     5    1
    31     5     6    1
    32     4     7    1
    33     7     8    1
    34    19    20   ar
    35    20    21   ar
    36    21    22    1
    37    22    13   am
    38    21    16   ar
    39     6     1    1
    40     8     1    1
    41    35    26   ar
    42    35    30   ar
    43     9    10    1
    44    22    23    1
@<TRIPOS>MOLECULE
*****
 39 44 0 0 0
SMALL
GASTEIGER

@<TRIPOS>ATOM
      1 C         144.3824  139.6765  163.4075 C.3     1  UNL1        0.0700
      2 C         144.2093  139.1845  164.8139 C.3     1  UNL1        0.0193
      3 C         143.0039  138.3706  165.1807 C.3     1  UNL1        0.0286
      4 C         141.9717  138.0486  164.1410 C.3     1  UNL1        0.0932
      5 C         142.1448  138.5406  162.7346 C.3     1  UNL1        0.0286
      6 C         143.3502  139.3546  162.3679 C.3     1  UNL1        0.0193
      7 O         142.6154  138.4978  163.8926 O.3     1  UNL1       -0.3572
      8 C         143.7053  139.2339  163.5609 C.3     1  UNL1        0.1562
      9 N         145.5878  140.4905  163.0408 N.3     1  UNL1       -0.2926
     10 H         146.3859  140.0626  163.5101 H       1  UNL1        0.1236
     11 C         145.6302  141.9550  163.3628 C.3     1  UNL1        0.1152
     12 O         140.4696  145.6638  158.8502 O.2     1  UNL1       -0.2707
     13 C         140.9519  145.2627  160.2128 C.2     1  UNL1        0.2718
     14 C         140.1964  145.6969  161.4336 C.3     1  UNL1        0.2898
     15 O         140.6787  145.2959  162.7962 O.3     1  UNL1       -0.4628
     16 C         141.9166  144.4607  162.9379 C.ar    1  UNL1        0.1708
     17 C         142.3989  144.0596  164.3004 C.ar    1  UNL1        0.0411
     18 C         143.6367  143.2244  164.4421 C.ar    1  UNL1        0.0193
     19 C         144.3923  142.7902  163.2212 C.ar    1  UNL1        0.0765
     20 N         143.9100  143.1912  161.8586 N.ar    1  UNL1       -0.2304
     21 C         142.6721  144.0265  161.7170 C.ar    1  UNL1        0.1682
     22 N         142.1898  144.4275  160.3544 N.am    1  UNL1       -0.2639
     23 H         142.6857  144.1425  159.5531 H       1  UNL1        0.1565
     24 C         140.7663  137.2346  164.5078 C.3     1  UNL1        0.0319
     25 C         139.5691  137.9006  165.1187 C.3     1  UNL1        0.0304
     26 C         139.3762  139.3805  164.9689 C.ar    1  UNL1       -0.0014
     27 C         138.6892  139.9280  163.7529 C.ar    1  UNL1        0.0179
     28 C         138.4962  141.4079  163.6031 C.ar    1  UNL1        0.0986
     29 N         138.9902  142.3404  164.6690 N.ar    1  UNL1       -0.2423
     30 C         139.6772  141.7930  165.8849 C.ar    1  UNL1        0.0986
     31 C         140.1712  142.7256  166.9509 C.ar    1  UNL1        0.0260
     32 C         140.8583  142.1781  168.1668 C.ar    1  UNL1        0.0920
     33 C         141.0512  140.6982  168.3167 C.ar    1  UNL1        0.1028
     34 N         140.5572  139.7656  167.2507 N.ar    1  UNL1       -0.2427
     35 C         139.8702  140.3130  166.0348 C.ar    1  UNL1        0.0949
     36 C         141.3523  143.1106  169.2328 C.3     1  UNL1        0.4201
     37 F         141.8463  144.0432  170.2988 F       1  UNL1       -0.1658
     38 F         142.7674  142.7391  168.9019 F       1  UNL1       -0.1658
     39 F         139.9372  143.4821  169.5636 F       1  UNL1       -0.1658
@<TRIPOS>BOND
     1    12    13    2
     2    13    14    1
     3    14    15    1
     4    15    16    1
     5    16    17   ar
     6    17    18   ar
     7    18    19   ar
     8    19    11    1
     9    11     9    1
    10     9     1    1
    11     1     2    1
    12     2     3    1
    13     3     4    1
    14     4    24    1
    15    24    25    1
    16    25    26    1
    17    26    27   ar
    18    27    28   ar
    19    28    29   ar
    20    29    30   ar
    21    30    31   ar
    22    31    32   ar
    23    32    36    1
    24    36    37    1
    25    36    38    1
    26    36    39    1
    27    32    33   ar
    28    33    34   ar
    29    34    35   ar
    30     4     5    1
    31     5     6    1
    32     4     7    1
    33     7     8    1
    34    19    20   ar
    35    20    21   ar
    36    21    22    1
    37    22    13   am
    38    21    16   ar
    39     6     1    1
    40     8     1    1
    41    35    26   ar
    42    35    30   ar
    43     9    10    1
    44    22    23    1
@<TRIPOS>MOLECULE
*****
 39 44 0 0 0
SMALL
GASTEIGER

@<TRIPOS>ATOM
      1 C         143.6510  143.8313  162.3569 C.3     1  UNL1        0.0700
      2 C         142.5723  143.6698  161.3272 C.3     1  UNL1        0.0193
      3 C         141.2024  144.2247  161.5828 C.3     1  UNL1        0.0286
      4 C         140.9111  144.9410  162.8682 C.3     1  UNL1        0.0932
      5 C         141.9898  145.1025  163.8979 C.3     1  UNL1        0.0286
      6 C         143.3598  144.5476  163.6422 C.3     1  UNL1        0.0193
      7 O         141.6770  144.6541  162.7731 O.3     1  UNL1       -0.3572
      8 C         142.9157  144.1524  162.5420 C.3     1  UNL1        0.1562
      9 N         145.0210  143.2765  162.1013 N.3     1  UNL1       -0.2926
     10 H         145.3952  143.7760  161.2946 H       1  UNL1        0.1236
     11 C         145.1977  141.8128  161.8244 C.3     1  UNL1        0.1152
     12 O         138.9206  137.3319  162.9505 O.2     1  UNL1       -0.2707
     13 C         140.2704  137.8121  163.3947 C.2     1  UNL1        0.2718
     14 C         140.8777  137.2790  164.6584 C.3     1  UNL1        0.2898
     15 O         142.2275  137.7593  165.1026 O.3     1  UNL1       -0.4628
     16 C         142.9701  138.7727  164.2831 C.ar    1  UNL1        0.1708
     17 C         144.3199  139.2530  164.7273 C.ar    1  UNL1        0.0411
     18 C         145.0625  140.2663  163.9077 C.ar    1  UNL1        0.0193
     19 C         144.4552  140.7995  162.6440 C.ar    1  UNL1        0.0765
     20 N         143.1054  140.3192  162.1998 N.ar    1  UNL1       -0.2304
     21 C         142.3628  139.3058  163.0194 C.ar    1  UNL1        0.1682
     22 N         141.0130  138.8255  162.5752 N.am    1  UNL1       -0.2639
     23 H         140.6144  139.1754  161.7458 H       1  UNL1        0.1565
     24 C         139.5412  145.4959  163.1238 C.3     1  UNL1        0.0319
     25 C         138.6388  144.8350  164.1234 C.3     1  UNL1        0.0304
     26 C         138.4807  143.3434  164.1200 C.ar    1  UNL1       -0.0014
     27 C         137.6264  142.6821  163.0794 C.ar    1  UNL1        0.0179
     28 C         137.4682  141.1905  163.0761 C.ar    1  UNL1        0.0986
     29 N         138.1645  140.3601  164.1133 N.ar    1  UNL1       -0.2423
     30 C         139.0188  141.0214  165.1538 C.ar    1  UNL1        0.0986
     31 C         139.7150  140.1911  166.1911 C.ar    1  UNL1        0.0260
     32 C         140.5693  140.8524  167.2317 C.ar    1  UNL1        0.0920
     33 C         140.7274  142.3440  167.2350 C.ar    1  UNL1        0.1028
     34 N         140.0312  143.1744  166.1978 N.ar    1  UNL1       -0.2427
     35 C         139.1769  142.5131  165.1572 C.ar    1  UNL1        0.0949
     36 C         141.2655  140.0221  168.2689 C.3     1  UNL1        0.4201
     37 F         141.9617  139.1917  169.3061 F       1  UNL1       -0.1658
     38 F         142.5191  140.0446  167.4455 F       1  UNL1       -0.1658
     39 F         140.0119  139.9995  169.0923 F       1  UNL1       -0.1658
@<TRIPOS>BOND
     1    12    13    2
     2    13    14    1
     3    14    15    1
     4    15    16    1
     5    16    17   ar
     6    17    18   ar
     7    18    19   ar
     8    19    11    1
     9    11     9    1
    10     9     1    1
    11     1     2    1
    12     2     3    1
    13     3     4    1
    14     4    24    1
    15    24    25    1
    16    25    26    1
    17    26    27   ar
    18    27    28   ar
    19    28    29   ar
    20    29    30   ar
    21    30    31   ar
    22    31    32   ar
    23    32    36    1
    24    36    37    1
    25    36    38    1
    26    36    39    1
    27    32    33   ar
    28    33    34   ar
    29    34    35   ar
    30     4     5    1
    31     5     6    1
    32     4     7    1
    33     7     8    1
    34    19    20   ar
    35    20    21   ar
    36    21    22    1
    37    22    13   am
    38    21    16   ar
    39     6     1    1
    40     8     1    1
    41    35    26   ar
    42    35    30   ar
    43     9    10    1
    44    22    23    1
@<TRIPOS>MOLECULE
*****
 39 44 0 0 0
SMALL
GASTEIGER

@<TRIPOS>ATOM
      1 C         142.2561  144.8103  162.9589 C.3     1  UNL1        0.0700
      2 C         142.6716  143.9708  161.7873 C.3     1  UNL1        0.0193
      3 C         143.7382  142.9291  161.9518 C.3     1  UNL1        0.0286
      4 C         144.3894  142.7268  163.2879 C.3     1  UNL1        0.0932
      5 C         143.9739  143.5663  164.4595 C.3     1  UNL1        0.0286
      6 C         142.9072  144.6081  164.2950 C.3     1  UNL1        0.0193
      7 O         143.8096  143.3099  163.2465 O.3     1  UNL1       -0.3572
      8 C         142.8451  144.2519  163.0978 C.3     1  UNL1        0.1562
      9 N         141.1895  145.8521  162.7944 N.3     1  UNL1       -0.2926
     10 H         141.4482  146.6356  163.3941 H       1  UNL1        0.1236
     11 C         139.7611  145.5192  163.1091 C.3     1  UNL1        0.1152
     12 O         137.7306  139.9813  158.0141 O.2     1  UNL1       -0.2707
     13 C         137.8781  140.4524  159.4306 C.2     1  UNL1        0.2718
     14 C         137.4963  139.5486  160.5652 C.3     1  UNL1        0.2898
     15 O         137.6438  140.0196  161.9816 O.3     1  UNL1       -0.4628
     16 C         138.1731  141.3945  162.2635 C.ar    1  UNL1        0.1708
     17 C         138.3206  141.8656  163.6800 C.ar    1  UNL1        0.0411
     18 C         138.8499  143.2404  163.9618 C.ar    1  UNL1        0.0193
     19 C         139.2318  144.1443  162.8272 C.ar    1  UNL1        0.0765
     20 N         139.0843  143.6733  161.4108 N.ar    1  UNL1       -0.2304
     21 C         138.5549  142.2983  161.1289 C.ar    1  UNL1        0.1682
     22 N         138.4074  141.8272  159.7125 N.am    1  UNL1       -0.2639
     23 H         138.6580  142.4205  158.9678 H       1  UNL1        0.1565
     24 C         145.4560  141.6851  163.4524 C.3     1  UNL1        0.0319
     25 C         145.1153  140.3499  164.0450 C.3     1  UNL1        0.0304
     26 C         144.0372  139.5088  163.4285 C.ar    1  UNL1       -0.0014
     27 C         144.2878  138.8022  162.1292 C.ar    1  UNL1        0.0179
     28 C         143.2097  137.9611  161.5128 C.ar    1  UNL1        0.0986
     29 N         141.8809  137.8265  162.1955 N.ar    1  UNL1       -0.2423
     30 C         141.6302  138.5330  163.4947 C.ar    1  UNL1        0.0986
     31 C         140.3014  138.3984  164.1774 C.ar    1  UNL1        0.0260
     32 C         140.0507  139.1049  165.4767 C.ar    1  UNL1        0.0920
     33 C         141.1288  139.9460  166.0932 C.ar    1  UNL1        0.1028
     34 N         142.4577  140.0807  165.4104 N.ar    1  UNL1       -0.2427
     35 C         142.7084  139.3742  164.1112 C.ar    1  UNL1        0.0949
     36 C         138.7219  138.9703  166.1594 C.3     1  UNL1        0.4201
     37 F         137.3931  138.8357  166.8421 F       1  UNL1       -0.1658
     38 F         139.0082  140.2058  166.9604 F       1  UNL1       -0.1658
     39 F         138.4355  137.7348  165.3585 F       1  UNL1       -0.1658
@<TRIPOS>BOND
     1    12    13    2
     2    13    14    1
     3    14    15    1
     4    15    16    1
     5    16    17   ar
     6    17    18   ar
     7    18    19   ar
     8    19    11    1
     9    11     9    1
    10     9     1    1
    11     1     2    1
    12     2     3    1
    13     3     4    1
    14     4    24    1
    15    24    25    1
    16    25    26    1
    17    26    27   ar
    18    27    28   ar
    19    28    29   ar
    20    29    30   ar
    21    30    31   ar
    22    31    32   ar
    23    32    36    1
    24    36    37    1
    25    36    38    1
    26    36    39    1
    27    32    33   ar
    28    33    34   ar
    29    34    35   ar
    30     4     5    1
    31     5     6    1
    32     4     7    1
    33     7     8    1
    34    19    20   ar
    35    20    21   ar
    36    21    22    1
    37    22    13   am
    38    21    16   ar
    39     6     1    1
    40     8     1    1
    41    35    26   ar
    42    35    30   ar
    43     9    10    1
    44    22    23    1
@<TRIPOS>MOLECULE
*****
 39 44 0 0 0
SMALL
GASTEIGER

@<TRIPOS>ATOM
      1 C         142.3164  138.2838  162.6044 C.3     1  UNL1        0.0700
      2 C         142.9388  139.1691  161.5656 C.3     1  UNL1        0.0193
      3 C         144.0410  140.1123  161.9468 C.3     1  UNL1        0.0286
      4 C         144.5209  140.1704  163.3668 C.3     1  UNL1        0.0932
      5 C         143.8985  139.2852  164.4056 C.3     1  UNL1        0.0286
      6 C         142.7962  138.3419  164.0243 C.3     1  UNL1        0.0193
      7 O         143.9142  139.6375  163.2057 O.3     1  UNL1       -0.3572
      8 C         142.9176  138.7846  162.8610 C.3     1  UNL1        0.1562
      9 N         141.2142  137.3406  162.2232 N.3     1  UNL1       -0.2926
     10 H         141.5433  136.8151  161.4133 H       1  UNL1        0.1236
     11 C         139.8579  137.8754  161.8703 C.3     1  UNL1        0.1152
     12 O         138.3076  145.5092  162.1386 O.2     1  UNL1       -0.2707
     13 C         138.2736  144.1534  162.7795 C.2     1  UNL1        0.2718
     14 C         137.6890  143.9865  164.1507 C.3     1  UNL1        0.2898
     15 O         137.6550  142.6307  164.7916 O.3     1  UNL1       -0.4628
     16 C         138.2057  141.4419  164.0613 C.ar    1  UNL1        0.1708
     17 C         138.1718  140.0861  164.7022 C.ar    1  UNL1        0.0411
     18 C         138.7225  138.8973  163.9719 C.ar    1  UNL1        0.0193
     19 C         139.3072  139.0642  162.6006 C.ar    1  UNL1        0.0765
     20 N         139.3411  140.4200  161.9597 N.ar    1  UNL1       -0.2304
     21 C         138.7904  141.6088  162.6901 C.ar    1  UNL1        0.1682
     22 N         138.8243  142.9646  162.0492 N.am    1  UNL1       -0.2639
     23 H         139.2081  143.0742  161.1492 H       1  UNL1        0.1565
     24 C         145.6231  141.1136  163.7480 C.3     1  UNL1        0.0319
     25 C         145.2960  142.4282  164.3921 C.3     1  UNL1        0.0304
     26 C         143.8969  142.9655  164.3316 C.ar    1  UNL1       -0.0014
     27 C         143.4575  143.7824  163.1527 C.ar    1  UNL1        0.0179
     28 C         142.0583  144.3197  163.0922 C.ar    1  UNL1        0.0986
     29 N         141.0986  144.0402  164.2106 N.ar    1  UNL1       -0.2423
     30 C         141.5380  143.2234  165.3894 C.ar    1  UNL1        0.0986
     31 C         140.5782  142.9438  166.5078 C.ar    1  UNL1        0.0260
     32 C         141.0176  142.1270  167.6867 C.ar    1  UNL1        0.0920
     33 C         142.4168  141.5897  167.7472 C.ar    1  UNL1        0.1028
     34 N         143.3765  141.8692  166.6288 N.ar    1  UNL1       -0.2427
     35 C         142.9372  142.6860  165.4499 C.ar    1  UNL1        0.0949
     36 C         140.0579  141.8475  168.8050 C.3     1  UNL1        0.4201
     37 F         139.0981  141.5680  169.9234 F       1  UNL1       -0.1658
     38 F         140.2046  143.2613  169.2843 F       1  UNL1       -0.1658
     39 F         139.9111  140.4337  168.3257 F       1  UNL1       -0.1658
@<TRIPOS>BOND
     1    12    13    2
     2    13    14    1
     3    14    15    1
     4    15    16    1
     5    16    17   ar
     6    17    18   ar
     7    18    19   ar
     8    19    11    1
     9    11     9    1
    10     9     1    1
    11     1     2    1
    12     2     3    1
    13     3     4    1
    14     4    24    1
    15    24    25    1
    16    25    26    1
    17    26    27   ar
    18    27    28   ar
    19    28    29   ar
    20    29    30   ar
    21    30    31   ar
    22    31    32   ar
    23    32    36    1
    24    36    37    1
    25    36    38    1
    26    36    39    1
    27    32    33   ar
    28    33    34   ar
    29    34    35   ar
    30     4     5    1
    31     5     6    1
    32     4     7    1
    33     7     8    1
    34    19    20   ar
    35    20    21   ar
    36    21    22    1
    37    22    13   am
    38    21    16   ar
    39     6     1    1
    40     8     1    1
    41    35    26   ar
    42    35    30   ar
    43     9    10    1
    44    22    23    1
@<TRIPOS>MOLECULE
*****
 39 44 0 0 0
SMALL
GASTEIGER

@<TRIPOS>ATOM
      1 C         140.3723  138.0279  161.7924 C.3     1  UNL1        0.0700
      2 C         140.9045  137.4727  163.0802 C.3     1  UNL1        0.0193
      3 C         142.2864  137.8338  163.5383 C.3     1  UNL1        0.0286
      4 C         143.1362  138.7501  162.7086 C.3     1  UNL1        0.0932
      5 C         142.6040  139.3053  161.4208 C.3     1  UNL1        0.0286
      6 C         141.2220  138.9442  160.9627 C.3     1  UNL1        0.0193
      7 O         142.3852  138.5808  162.4165 O.3     1  UNL1       -0.3572
      8 C         141.1356  138.2543  162.0022 C.3     1  UNL1        0.1562
      9 N         138.9904  137.6668  161.3342 N.3     1  UNL1       -0.2926
     10 H         138.9958  137.7157  160.3154 H       1  UNL1        0.1236
     11 C         137.8121  138.4697  161.8001 C.3     1  UNL1        0.1152
     12 O         139.0279  146.1681  161.7196 O.2     1  UNL1       -0.2707
     13 C         138.8373  144.8910  162.4829 C.2     1  UNL1        0.2718
     14 C         138.8613  144.9028  163.9826 C.3     1  UNL1        0.2898
     15 O         138.6707  143.6257  164.7459 O.3     1  UNL1       -0.4628
     16 C         138.4561  142.3367  164.0095 C.ar    1  UNL1        0.1708
     17 C         138.2654  141.0596  164.7728 C.ar    1  UNL1        0.0411
     18 C         138.0508  139.7706  164.0363 C.ar    1  UNL1        0.0193
     19 C         138.0267  139.7587  162.5365 C.ar    1  UNL1        0.0765
     20 N         138.2173  141.0358  161.7732 N.ar    1  UNL1       -0.2304
     21 C         138.4320  142.3249  162.5097 C.ar    1  UNL1        0.1682
     22 N         138.6226  143.6020  161.7465 N.am    1  UNL1       -0.2639
     23 H         138.6068  143.5942  160.7621 H       1  UNL1        0.1565
     24 C         144.5181  139.1112  163.1668 C.3     1  UNL1        0.0319
     25 C         144.7052  139.9567  164.3916 C.3     1  UNL1        0.0304
     26 C         143.8070  141.1330  164.6352 C.ar    1  UNL1       -0.0014
     27 C         143.9357  142.3634  163.7868 C.ar    1  UNL1        0.0179
     28 C         143.0375  143.5398  164.0305 C.ar    1  UNL1        0.0986
     29 N         142.0106  143.4858  165.1225 N.ar    1  UNL1       -0.2423
     30 C         141.8818  142.2555  165.9709 C.ar    1  UNL1        0.0986
     31 C         140.8549  142.2016  167.0629 C.ar    1  UNL1        0.0260
     32 C         140.7262  140.9712  167.9113 C.ar    1  UNL1        0.0920
     33 C         141.6244  139.7949  167.6677 C.ar    1  UNL1        0.1028
     34 N         142.6514  139.8488  166.5756 N.ar    1  UNL1       -0.2427
     35 C         142.7801  141.0791  165.7273 C.ar    1  UNL1        0.0949
     36 C         139.6993  140.9172  169.0033 C.3     1  UNL1        0.4201
     37 F         138.6724  140.8633  170.0954 F       1  UNL1       -0.1658
     38 F         138.9289  139.8899  168.2281 F       1  UNL1       -0.1658
     39 F         140.4698  141.9445  169.7786 F       1  UNL1       -0.1658
@<TRIPOS>BOND
     1    12    13    2
     2    13    14    1
     3    14    15    1
     4    15    16    1
     5    16    17   ar
     6    17    18   ar
     7    18    19   ar
     8    19    11    1
     9    11     9    1
    10     9     1    1
    11     1     2    1
    12     2     3    1
    13     3     4    1
    14     4    24    1
    15    24    25    1
    16    25    26    1
    17    26    27   ar
    18    27    28   ar
    19    28    29   ar
    20    29    30   ar
    21    30    31   ar
    22    31    32   ar
    23    32    36    1
    24    36    37    1
    25    36    38    1
    26    36    39    1
    27    32    33   ar
    28    33    34   ar
    29    34    35   ar
    30     4     5    1
    31     5     6    1
    32     4     7    1
    33     7     8    1
    34    19    20   ar
    35    20    21   ar
    36    21    22    1
    37    22    13   am
    38    21    16   ar
    39     6     1    1
    40     8     1    1
    41    35    26   ar
    42    35    30   ar
    43     9    10    1
    44    22    23    1
@<TRIPOS>MOLECULE
*****
 39 44 0 0 0
SMALL
GASTEIGER

@<TRIPOS>ATOM
      1 C         141.3738  137.5103  164.0539 C.3     1  UNL1        0.0700
      2 C         141.8552  137.7365  162.6513 C.3     1  UNL1        0.0193
      3 C         140.8693  138.0164  161.5560 C.3     1  UNL1        0.0286
      4 C         139.4021  138.0702  161.8632 C.3     1  UNL1        0.0932
      5 C         138.9207  137.8441  163.2658 C.3     1  UNL1        0.0286
      6 C         139.9066  137.5641  164.3611 C.3     1  UNL1        0.0193
      7 O         139.9044  137.9135  162.4965 O.3     1  UNL1       -0.3572
      8 C         140.7958  137.6604  163.4870 C.3     1  UNL1        0.1562
      9 N         142.3596  137.2304  165.1492 N.3     1  UNL1       -0.2926
     10 H         141.8721  136.6694  165.8478 H       1  UNL1        0.1236
     11 C         143.0088  138.3667  165.8824 C.3     1  UNL1        0.1152
     12 O         141.9031  145.6532  163.3460 O.2     1  UNL1       -0.2707
     13 C         142.7588  144.4244  163.4348 C.2     1  UNL1        0.2718
     14 C         144.1016  144.3957  162.7670 C.3     1  UNL1        0.2898
     15 O         144.9573  143.1669  162.8559 O.3     1  UNL1       -0.4628
     16 C         144.4702  141.9669  163.6125 C.ar    1  UNL1        0.1708
     17 C         145.3259  140.7381  163.7013 C.ar    1  UNL1        0.0411
     18 C         144.8388  139.5381  164.4580 C.ar    1  UNL1        0.0193
     19 C         143.4959  139.5667  165.1258 C.ar    1  UNL1        0.0765
     20 N         142.6402  140.7955  165.0370 N.ar    1  UNL1       -0.2304
     21 C         143.1274  141.9956  164.2803 C.ar    1  UNL1        0.1682
     22 N         142.2717  143.2244  164.1914 N.am    1  UNL1       -0.2639
     23 H         141.3903  143.2432  164.6297 H       1  UNL1        0.1565
     24 C         138.4163  138.3501  160.7679 C.3     1  UNL1        0.0319
     25 C         137.5060  139.5385  160.8638 C.3     1  UNL1        0.0304
     26 C         138.0564  140.9217  160.6798 C.ar    1  UNL1       -0.0014
     27 C         138.5419  141.3624  159.3306 C.ar    1  UNL1        0.0179
     28 C         139.0923  142.7455  159.1465 C.ar    1  UNL1        0.0986
     29 N         139.1574  143.6880  160.3116 N.ar    1  UNL1       -0.2423
     30 C         138.6720  143.2474  161.6608 C.ar    1  UNL1        0.0986
     31 C         138.7370  144.1899  162.8259 C.ar    1  UNL1        0.0260
     32 C         138.2516  143.7492  164.1751 C.ar    1  UNL1        0.0920
     33 C         137.7012  142.3660  164.3591 C.ar    1  UNL1        0.1028
     34 N         137.6361  141.4235  163.1940 N.ar    1  UNL1       -0.2427
     35 C         138.1215  141.8642  161.8449 C.ar    1  UNL1        0.0949
     36 C         138.3167  144.6917  165.3402 C.3     1  UNL1        0.4201
     37 F         138.3817  145.6342  166.5053 F       1  UNL1       -0.1658
     38 F         136.8183  144.7108  165.4083 F       1  UNL1       -0.1658
     39 F         139.8150  144.6725  165.2720 F       1  UNL1       -0.1658
@<TRIPOS>BOND
     1    12    13    2
     2    13    14    1
     3    14    15    1
     4    15    16    1
     5    16    17   ar
     6    17    18   ar
     7    18    19   ar
     8    19    11    1
     9    11     9    1
    10     9     1    1
    11     1     2    1
    12     2     3    1
    13     3     4    1
    14     4    24    1
    15    24    25    1
    16    25    26    1
    17    26    27   ar
    18    27    28   ar
    19    28    29   ar
    20    29    30   ar
    21    30    31   ar
    22    31    32   ar
    23    32    36    1
    24    36    37    1
    25    36    38    1
    26    36    39    1
    27    32    33   ar
    28    33    34   ar
    29    34    35   ar
    30     4     5    1
    31     5     6    1
    32     4     7    1
    33     7     8    1
    34    19    20   ar
    35    20    21   ar
    36    21    22    1
    37    22    13   am
    38    21    16   ar
    39     6     1    1
    40     8     1    1
    41    35    26   ar
    42    35    30   ar
    43     9    10    1
    44    22    23    1
