@<TRIPOS>MOLECULE
*****
 29 31 0 0 0
SMALL
GASTEIGER

@<TRIPOS>ATOM
      1 N         142.6337  142.3738  163.7387 N.3     1  UNL1       -0.2713
      2 C         141.5704  142.9919  162.8801 C.3     1  UNL1        0.0896
      3 C         140.7944  142.1414  161.9186 C.3     1  UNL1        0.0897
      4 N         141.0817  140.6728  161.8157 N.3     1  UNL1       -0.2700
      5 C         142.1450  140.0546  162.6744 C.3     1  UNL1        0.0897
      6 C         142.9210  140.9051  163.6359 C.3     1  UNL1        0.0896
      7 C         143.6646  144.6689  164.3867 C.3     1  UNL1        0.0177
      8 C         143.4096  143.2243  164.7002 C.3     1  UNL1        0.0620
      9 C         143.9307  142.6302  165.9752 C.3     1  UNL1        0.0423
     10 C         143.0440  142.5495  167.1824 C.ar    1  UNL1       -0.0204
     11 C         143.6484  142.4526  168.5518 C.ar    1  UNL1        0.0021
     12 C         142.7616  142.3718  169.7589 C.ar    1  UNL1        0.0749
     13 C         141.2705  142.3880  169.5966 C.ar    1  UNL1        0.2900
     14 C         140.6662  142.4849  168.2272 C.ar    1  UNL1        0.0749
     15 C         141.5529  142.5656  167.0201 C.ar    1  UNL1        0.0021
     16 N         140.3838  142.3073  170.8038 N.pl3   1  UNL1        0.0809
     17 O         139.3206  143.3422  171.0239 O.2     1  UNL1        0.0415
     18 O         140.5603  141.1916  171.7908 O.co2   1  UNL1       -0.5760
     19 C         140.3057  139.8223  160.8542 C.3     1  UNL1        0.0769
     20 C         139.1128  139.0482  161.3316 C.3     1  UNL1        0.0437
     21 C         138.8192  138.9526  162.7995 C.ar    1  UNL1       -0.0204
     22 C         139.0729  137.6689  163.5330 C.ar    1  UNL1        0.0021
     23 C         138.7792  137.5733  165.0009 C.ar    1  UNL1        0.0749
     24 C         138.2319  138.7613  165.7352 C.ar    1  UNL1        0.2900
     25 C         137.9782  140.0448  165.0016 C.ar    1  UNL1        0.0749
     26 C         138.2719  140.1405  163.5338 C.ar    1  UNL1        0.0021
     27 N         137.9382  138.6657  167.2030 N.pl3   1  UNL1        0.0809
     28 O         138.7645  139.4417  168.1853 O.2     1  UNL1        0.0415
     29 O         136.8182  137.7940  167.6886 O.co2   1  UNL1       -0.5760
@<TRIPOS>UNITY_ATOM_ATTR
16 1
charge 1
18 1
charge -1
27 1
charge 1
29 1
charge -1
@<TRIPOS>BOND
     1     7     8    1
     2     8     9    1
     3     9    10    1
     4    10    11   ar
     5    11    12   ar
     6    12    13   ar
     7    13    16    1
     8    16    17    2
     9    16    18    1
    10    13    14   ar
    11    14    15   ar
    12     8     1    1
    13     1     2    1
    14     2     3    1
    15     3     4    1
    16     4    19    1
    17    19    20    1
    18    20    21    1
    19    21    22   ar
    20    22    23   ar
    21    23    24   ar
    22    24    27    1
    23    27    28    2
    24    27    29    1
    25    24    25   ar
    26    25    26   ar
    27     4     5    1
    28     5     6    1
    29    15    10   ar
    30     6     1    1
    31    26    21   ar
@<TRIPOS>MOLECULE
*****
 29 31 0 0 0
SMALL
GASTEIGER

@<TRIPOS>ATOM
      1 N         142.1464  138.7112  164.2504 N.3     1  UNL1       -0.2713
      2 C         140.8245  138.3072  164.8328 C.3     1  UNL1        0.0896
      3 C         139.6494  138.0685  163.9316 C.3     1  UNL1        0.0897
      4 N         139.7962  138.2336  162.4480 N.3     1  UNL1       -0.2700
      5 C         141.1182  138.6376  161.8655 C.3     1  UNL1        0.0897
      6 C         142.2933  138.8763  162.7667 C.3     1  UNL1        0.0896
      7 C         144.5766  139.5603  164.6017 C.3     1  UNL1        0.0177
      8 C         143.3215  138.9499  165.1516 C.3     1  UNL1        0.0620
      9 C         143.2416  138.5784  166.6026 C.3     1  UNL1        0.0423
     10 C         142.7375  139.5739  167.6051 C.ar    1  UNL1       -0.0204
     11 C         142.4447  140.9826  167.1812 C.ar    1  UNL1        0.0021
     12 C         141.9406  141.9780  168.1837 C.ar    1  UNL1        0.0749
     13 C         141.7293  141.5647  169.6100 C.ar    1  UNL1        0.2900
     14 C         142.0220  140.1560  170.0339 C.ar    1  UNL1        0.0749
     15 C         142.5261  139.1606  169.0315 C.ar    1  UNL1        0.0021
     16 N         141.2251  142.5602  170.6125 N.pl3   1  UNL1        0.0809
     17 O         140.6344  142.0870  171.9076 O.2     1  UNL1        0.0415
     18 O         141.3118  144.0288  170.3199 O.co2   1  UNL1       -0.5760
     19 C         138.6211  137.9949  161.5468 C.3     1  UNL1        0.0769
     20 C         137.5713  139.0541  161.3868 C.3     1  UNL1        0.0437
     21 C         137.8675  140.4698  161.7844 C.ar    1  UNL1       -0.0204
     22 C         137.4447  140.9744  163.1322 C.ar    1  UNL1        0.0021
     23 C         137.7409  142.3901  163.5298 C.ar    1  UNL1        0.0749
     24 C         138.4600  143.3012  162.5795 C.ar    1  UNL1        0.2900
     25 C         138.8827  142.7966  161.2317 C.ar    1  UNL1        0.0749
     26 C         138.5865  141.3809  160.8341 C.ar    1  UNL1        0.0021
     27 N         138.7562  144.7169  162.9771 N.pl3   1  UNL1        0.0809
     28 O         138.8266  145.7904  161.9318 O.2     1  UNL1        0.0415
     29 O         138.9820  145.0591  164.4201 O.co2   1  UNL1       -0.5760
@<TRIPOS>UNITY_ATOM_ATTR
16 1
charge 1
18 1
charge -1
27 1
charge 1
29 1
charge -1
@<TRIPOS>BOND
     1     7     8    1
     2     8     9    1
     3     9    10    1
     4    10    11   ar
     5    11    12   ar
     6    12    13   ar
     7    13    16    1
     8    16    17    2
     9    16    18    1
    10    13    14   ar
    11    14    15   ar
    12     8     1    1
    13     1     2    1
    14     2     3    1
    15     3     4    1
    16     4    19    1
    17    19    20    1
    18    20    21    1
    19    21    22   ar
    20    22    23   ar
    21    23    24   ar
    22    24    27    1
    23    27    28    2
    24    27    29    1
    25    24    25   ar
    26    25    26   ar
    27     4     5    1
    28     5     6    1
    29    15    10   ar
    30     6     1    1
    31    26    21   ar
@<TRIPOS>MOLECULE
*****
 29 31 0 0 0
SMALL
GASTEIGER

@<TRIPOS>ATOM
      1 N         138.5127  139.9966  162.6859 N.3     1  UNL1       -0.2713
      2 C         137.4743  140.8057  163.4049 C.3     1  UNL1        0.0896
      3 C         137.4897  142.3024  163.3075 C.3     1  UNL1        0.0897
      4 N         138.5434  142.9901  162.4910 N.3     1  UNL1       -0.2700
      5 C         139.5818  142.1809  161.7718 C.3     1  UNL1        0.0897
      6 C         139.5665  140.6842  161.8693 C.3     1  UNL1        0.0896
      7 C         137.8090  137.6865  161.7274 C.3     1  UNL1        0.0177
      8 C         138.4973  138.4998  162.7833 C.3     1  UNL1        0.0620
      9 C         139.1701  137.8164  163.9366 C.3     1  UNL1        0.0423
     10 C         139.2381  138.4932  165.2736 C.ar    1  UNL1       -0.0204
     11 C         140.4681  139.2568  165.6660 C.ar    1  UNL1        0.0021
     12 C         140.5359  139.9335  167.0029 C.ar    1  UNL1        0.0749
     13 C         139.3739  139.8467  167.9473 C.ar    1  UNL1        0.2900
     14 C         138.1439  139.0831  167.5549 C.ar    1  UNL1        0.0749
     15 C         138.0760  138.4064  166.2180 C.ar    1  UNL1        0.0021
     16 N         139.4418  140.5235  169.2843 N.pl3   1  UNL1        0.0809
     17 O         139.9399  141.9348  169.3860 O.2     1  UNL1        0.0415
     18 O         139.0117  139.7892  170.5194 O.co2   1  UNL1       -0.5760
     19 C         138.5588  144.4868  162.3935 C.3     1  UNL1        0.0769
     20 C         139.3317  145.2956  163.3927 C.3     1  UNL1        0.0437
     21 C         140.6878  144.8370  163.8408 C.ar    1  UNL1       -0.0204
     22 C         140.8124  143.6971  164.8079 C.ar    1  UNL1        0.0021
     23 C         142.1685  143.2386  165.2560 C.ar    1  UNL1        0.0749
     24 C         143.3999  143.9199  164.7369 C.ar    1  UNL1        0.2900
     25 C         143.2753  145.0596  163.7698 C.ar    1  UNL1        0.0749
     26 C         141.9192  145.5182  163.3218 C.ar    1  UNL1        0.0021
     27 N         144.7560  143.4613  165.1850 N.pl3   1  UNL1        0.0809
     28 O         145.4139  142.2943  164.5103 O.2     1  UNL1        0.0415
     29 O         145.4542  144.1698  166.3078 O.co2   1  UNL1       -0.5760
@<TRIPOS>UNITY_ATOM_ATTR
16 1
charge 1
18 1
charge -1
27 1
charge 1
29 1
charge -1
@<TRIPOS>BOND
     1     7     8    1
     2     8     9    1
     3     9    10    1
     4    10    11   ar
     5    11    12   ar
     6    12    13   ar
     7    13    16    1
     8    16    17    2
     9    16    18    1
    10    13    14   ar
    11    14    15   ar
    12     8     1    1
    13     1     2    1
    14     2     3    1
    15     3     4    1
    16     4    19    1
    17    19    20    1
    18    20    21    1
    19    21    22   ar
    20    22    23   ar
    21    23    24   ar
    22    24    27    1
    23    27    28    2
    24    27    29    1
    25    24    25   ar
    26    25    26   ar
    27     4     5    1
    28     5     6    1
    29    15    10   ar
    30     6     1    1
    31    26    21   ar
@<TRIPOS>MOLECULE
*****
 29 31 0 0 0
SMALL
GASTEIGER

@<TRIPOS>ATOM
      1 N         141.5331  140.1034  162.0410 N.3     1  UNL1       -0.2713
      2 C         141.5763  141.5903  162.2337 C.3     1  UNL1        0.0896
      3 C         142.5253  142.1904  163.2283 C.3     1  UNL1        0.0897
      4 N         143.4312  141.3036  164.0301 N.3     1  UNL1       -0.2700
      5 C         143.3881  139.8166  163.8374 C.3     1  UNL1        0.0897
      6 C         142.4390  139.2165  162.8428 C.3     1  UNL1        0.0896
      7 C         141.0350  139.2486  159.6386 C.3     1  UNL1        0.0177
      8 C         140.5840  139.5032  161.0465 C.3     1  UNL1        0.0620
      9 C         139.1841  139.1577  161.4597 C.3     1  UNL1        0.0423
     10 C         138.8462  139.0094  162.9136 C.ar    1  UNL1       -0.0204
     11 C         138.9145  137.6603  163.5657 C.ar    1  UNL1        0.0021
     12 C         138.5766  137.5121  165.0196 C.ar    1  UNL1        0.0749
     13 C         138.1705  138.7130  165.8214 C.ar    1  UNL1        0.2900
     14 C         138.1023  140.0621  165.1694 C.ar    1  UNL1        0.0749
     15 C         138.4401  140.2103  163.7155 C.ar    1  UNL1        0.0021
     16 N         137.8326  138.5647  167.2754 N.pl3   1  UNL1        0.0809
     17 O         136.7497  137.6180  167.7009 O.2     1  UNL1        0.0415
     18 O         138.5776  139.3632  168.3037 O.co2   1  UNL1       -0.5760
     19 C         144.3803  141.9037  165.0246 C.3     1  UNL1        0.0769
     20 C         143.9080  142.9792  165.9575 C.3     1  UNL1        0.0437
     21 C         143.0206  142.6310  167.1156 C.ar    1  UNL1       -0.0204
     22 C         143.6053  142.4758  168.4883 C.ar    1  UNL1        0.0021
     23 C         142.7178  142.1276  169.6465 C.ar    1  UNL1        0.0749
     24 C         141.2458  141.9346  169.4319 C.ar    1  UNL1        0.2900
     25 C         140.6613  142.0898  168.0593 C.ar    1  UNL1        0.0749
     26 C         141.5487  142.4380  166.9011 C.ar    1  UNL1        0.0021
     27 N         140.3584  141.5864  170.5900 N.pl3   1  UNL1        0.0809
     28 O         138.8765  141.7949  170.4886 O.2     1  UNL1        0.0415
     29 O         140.9530  141.0297  171.8497 O.co2   1  UNL1       -0.5760
@<TRIPOS>UNITY_ATOM_ATTR
16 1
charge 1
18 1
charge -1
27 1
charge 1
29 1
charge -1
@<TRIPOS>BOND
     1     7     8    1
     2     8     9    1
     3     9    10    1
     4    10    11   ar
     5    11    12   ar
     6    12    13   ar
     7    13    16    1
     8    16    17    2
     9    16    18    1
    10    13    14   ar
    11    14    15   ar
    12     8     1    1
    13     1     2    1
    14     2     3    1
    15     3     4    1
    16     4    19    1
    17    19    20    1
    18    20    21    1
    19    21    22   ar
    20    22    23   ar
    21    23    24   ar
    22    24    27    1
    23    27    28    2
    24    27    29    1
    25    24    25   ar
    26    25    26   ar
    27     4     5    1
    28     5     6    1
    29    15    10   ar
    30     6     1    1
    31    26    21   ar
@<TRIPOS>MOLECULE
*****
 29 31 0 0 0
SMALL
GASTEIGER

@<TRIPOS>ATOM
      1 N         142.7979  139.3687  161.4009 N.3     1  UNL1       -0.2713
      2 C         142.9407  140.8071  161.0003 C.3     1  UNL1        0.0896
      3 C         143.8196  141.7242  161.7982 C.3     1  UNL1        0.0897
      4 N         144.5556  141.2028  162.9966 N.3     1  UNL1       -0.2700
      5 C         144.4129  139.7643  163.3973 C.3     1  UNL1        0.0897
      6 C         143.5340  138.8473  162.5994 C.3     1  UNL1        0.0896
      7 C         142.5118  137.5979  159.5213 C.3     1  UNL1        0.0177
      8 C         141.9190  138.4516  160.6030 C.3     1  UNL1        0.0620
      9 C         140.4475  138.3883  160.8867 C.3     1  UNL1        0.0423
     10 C         139.9483  138.5294  162.2942 C.ar    1  UNL1       -0.0204
     11 C         140.1868  137.4317  163.2882 C.ar    1  UNL1        0.0021
     12 C         139.6876  137.5729  164.6956 C.ar    1  UNL1        0.0749
     13 C         138.9499  138.8119  165.1090 C.ar    1  UNL1        0.2900
     14 C         138.7114  139.9096  164.1150 C.ar    1  UNL1        0.0749
     15 C         139.2106  139.7684  162.7076 C.ar    1  UNL1        0.0021
     16 N         138.4506  138.9530  166.5165 N.pl3   1  UNL1        0.0809
     17 O         139.1768  139.8395  167.4844 O.2     1  UNL1        0.0415
     18 O         137.2253  138.2078  166.9559 O.co2   1  UNL1       -0.5760
     19 C         145.4345  142.1199  163.7945 C.3     1  UNL1        0.0769
     20 C         144.8426  142.9702  164.8792 C.3     1  UNL1        0.0437
     21 C         143.4189  143.4314  164.7779 C.ar    1  UNL1       -0.0204
     22 C         143.0821  144.6555  163.9789 C.ar    1  UNL1        0.0021
     23 C         141.6583  145.1167  163.8776 C.ar    1  UNL1        0.0749
     24 C         140.5714  144.3539  164.5753 C.ar    1  UNL1        0.2900
     25 C         140.9082  143.1299  165.3742 C.ar    1  UNL1        0.0749
     26 C         142.3319  142.6686  165.4755 C.ar    1  UNL1        0.0021
     27 N         139.1477  144.8151  164.4740 N.pl3   1  UNL1        0.0809
     28 O         138.4374  144.7717  163.1536 O.2     1  UNL1        0.0415
     29 O         138.4342  145.3197  165.6932 O.co2   1  UNL1       -0.5760
@<TRIPOS>UNITY_ATOM_ATTR
16 1
charge 1
18 1
charge -1
27 1
charge 1
29 1
charge -1
@<TRIPOS>BOND
     1     7     8    1
     2     8     9    1
     3     9    10    1
     4    10    11   ar
     5    11    12   ar
     6    12    13   ar
     7    13    16    1
     8    16    17    2
     9    16    18    1
    10    13    14   ar
    11    14    15   ar
    12     8     1    1
    13     1     2    1
    14     2     3    1
    15     3     4    1
    16     4    19    1
    17    19    20    1
    18    20    21    1
    19    21    22   ar
    20    22    23   ar
    21    23    24   ar
    22    24    27    1
    23    27    28    2
    24    27    29    1
    25    24    25   ar
    26    25    26   ar
    27     4     5    1
    28     5     6    1
    29    15    10   ar
    30     6     1    1
    31    26    21   ar
@<TRIPOS>MOLECULE
*****
 29 31 0 0 0
SMALL
GASTEIGER

@<TRIPOS>ATOM
      1 N         141.7198  139.1674  164.6853 N.3     1  UNL1       -0.2713
      2 C         142.0407  138.9058  163.2436 C.3     1  UNL1        0.0896
      3 C         140.9386  138.5966  162.2741 C.3     1  UNL1        0.0897
      4 N         139.5157  138.5490  162.7463 N.3     1  UNL1       -0.2700
      5 C         139.1948  138.8106  164.1881 C.3     1  UNL1        0.0897
      6 C         140.2968  139.1198  165.1576 C.3     1  UNL1        0.0896
      7 C         143.6054  138.3608  166.2803 C.3     1  UNL1        0.0177
      8 C         142.8219  139.4765  165.6548 C.3     1  UNL1        0.0620
      9 C         143.1404  140.9013  165.9987 C.3     1  UNL1        0.0423
     10 C         142.3855  141.5954  167.0935 C.ar    1  UNL1       -0.0204
     11 C         142.9469  141.6337  168.4839 C.ar    1  UNL1        0.0021
     12 C         142.1920  142.3277  169.5787 C.ar    1  UNL1        0.0749
     13 C         140.8758  142.9835  169.2829 C.ar    1  UNL1        0.2900
     14 C         140.3144  142.9453  167.8925 C.ar    1  UNL1        0.0749
     15 C         141.0693  142.2512  166.7978 C.ar    1  UNL1        0.0021
     16 N         140.1209  143.6776  170.3777 N.pl3   1  UNL1        0.0809
     17 O         139.5189  142.8796  171.4961 O.2     1  UNL1        0.0415
     18 O         139.9680  145.1695  170.3541 O.co2   1  UNL1       -0.5760
     19 C         138.4137  138.2398  161.7768 C.3     1  UNL1        0.0769
     20 C         137.6347  139.3557  161.1461 C.3     1  UNL1        0.0437
     21 C         138.1962  140.7466  161.1295 C.ar    1  UNL1       -0.0204
     22 C         137.7537  141.7464  162.1564 C.ar    1  UNL1        0.0021
     23 C         138.3153  143.1372  162.1398 C.ar    1  UNL1        0.0749
     24 C         139.3193  143.5282  161.0962 C.ar    1  UNL1        0.2900
     25 C         139.7618  142.5284  160.0693 C.ar    1  UNL1        0.0749
     26 C         139.2002  141.1376  160.0859 C.ar    1  UNL1        0.0021
     27 N         139.8809  144.9190  161.0796 N.pl3   1  UNL1        0.0809
     28 O         141.2531  145.1672  160.5271 O.2     1  UNL1        0.0415
     29 O         139.0702  146.0616  161.6156 O.co2   1  UNL1       -0.5760
@<TRIPOS>UNITY_ATOM_ATTR
16 1
charge 1
18 1
charge -1
27 1
charge 1
29 1
charge -1
@<TRIPOS>BOND
     1     7     8    1
     2     8     9    1
     3     9    10    1
     4    10    11   ar
     5    11    12   ar
     6    12    13   ar
     7    13    16    1
     8    16    17    2
     9    16    18    1
    10    13    14   ar
    11    14    15   ar
    12     8     1    1
    13     1     2    1
    14     2     3    1
    15     3     4    1
    16     4    19    1
    17    19    20    1
    18    20    21    1
    19    21    22   ar
    20    22    23   ar
    21    23    24   ar
    22    24    27    1
    23    27    28    2
    24    27    29    1
    25    24    25   ar
    26    25    26   ar
    27     4     5    1
    28     5     6    1
    29    15    10   ar
    30     6     1    1
    31    26    21   ar
@<TRIPOS>MOLECULE
*****
 29 31 0 0 0
SMALL
GASTEIGER

@<TRIPOS>ATOM
      1 N         141.0502  140.4057  166.8034 N.3     1  UNL1       -0.2713
      2 C         141.5599  141.7993  167.0226 C.3     1  UNL1        0.0896
      3 C         142.8058  142.2604  166.3261 C.3     1  UNL1        0.0897
      4 N         143.5420  141.3280  165.4104 N.3     1  UNL1       -0.2700
      5 C         143.0323  139.9343  165.1912 C.3     1  UNL1        0.0897
      6 C         141.7864  139.4732  165.8877 C.3     1  UNL1        0.0896
      7 C         139.6277  140.1989  168.9677 C.3     1  UNL1        0.0177
      8 C         139.8043  139.9446  167.4999 C.3     1  UNL1        0.0620
      9 C         138.7350  139.2291  166.7288 C.3     1  UNL1        0.0423
     10 C         138.4923  139.5717  165.2886 C.ar    1  UNL1       -0.0204
     11 C         138.6958  138.5328  164.2260 C.ar    1  UNL1        0.0021
     12 C         138.4530  138.8754  162.7860 C.ar    1  UNL1        0.0749
     13 C         138.0068  140.2569  162.4086 C.ar    1  UNL1        0.2900
     14 C         137.8034  141.2958  163.4713 C.ar    1  UNL1        0.0749
     15 C         138.0461  140.9532  164.9113 C.ar    1  UNL1        0.0021
     16 N         137.7641  140.5994  160.9685 N.pl3   1  UNL1        0.0809
     17 O         138.2408  141.9112  160.4190 O.2     1  UNL1        0.0415
     18 O         137.0447  139.6302  160.0780 O.co2   1  UNL1       -0.5760
     19 C         144.7879  141.7891  164.7139 C.3     1  UNL1        0.0769
     20 C         144.6876  142.6372  163.4808 C.3     1  UNL1        0.0437
     21 C         143.4033  143.3413  163.1572 C.ar    1  UNL1       -0.0204
     22 C         142.3639  142.6580  162.3187 C.ar    1  UNL1        0.0021
     23 C         141.0796  143.3621  161.9951 C.ar    1  UNL1        0.0749
     24 C         140.8346  144.7496  162.5100 C.ar    1  UNL1        0.2900
     25 C         141.8739  145.4328  163.3484 C.ar    1  UNL1        0.0749
     26 C         143.1582  144.7287  163.6720 C.ar    1  UNL1        0.0021
     27 N         139.5503  145.4537  162.1864 N.pl3   1  UNL1        0.0809
     28 O         139.5785  146.8411  161.6169 O.2     1  UNL1        0.0415
     29 O         138.2378  144.7704  162.4323 O.co2   1  UNL1       -0.5760
@<TRIPOS>UNITY_ATOM_ATTR
16 1
charge 1
18 1
charge -1
27 1
charge 1
29 1
charge -1
@<TRIPOS>BOND
     1     7     8    1
     2     8     9    1
     3     9    10    1
     4    10    11   ar
     5    11    12   ar
     6    12    13   ar
     7    13    16    1
     8    16    17    2
     9    16    18    1
    10    13    14   ar
    11    14    15   ar
    12     8     1    1
    13     1     2    1
    14     2     3    1
    15     3     4    1
    16     4    19    1
    17    19    20    1
    18    20    21    1
    19    21    22   ar
    20    22    23   ar
    21    23    24   ar
    22    24    27    1
    23    27    28    2
    24    27    29    1
    25    24    25   ar
    26    25    26   ar
    27     4     5    1
    28     5     6    1
    29    15    10   ar
    30     6     1    1
    31    26    21   ar
@<TRIPOS>MOLECULE
*****
 29 31 0 0 0
SMALL
GASTEIGER

@<TRIPOS>ATOM
      1 N         139.8475  138.4387  164.5088 N.3     1  UNL1       -0.2713
      2 C         139.5070  139.0562  163.1849 C.3     1  UNL1        0.0896
      3 C         140.5054  139.0293  162.0658 C.3     1  UNL1        0.0897
      4 N         141.8443  138.3850  162.2706 N.3     1  UNL1       -0.2700
      5 C         142.1850  137.7675  163.5945 C.3     1  UNL1        0.0897
      6 C         141.1865  137.7944  164.7136 C.3     1  UNL1        0.0896
      7 C         138.2163  137.1898  166.0993 C.3     1  UNL1        0.0177
      8 C         138.8491  138.4656  165.6279 C.3     1  UNL1        0.0620
      9 C         138.4834  139.7681  166.2757 C.3     1  UNL1        0.0423
     10 C         139.4087  140.3936  167.2772 C.ar    1  UNL1       -0.0204
     11 C         140.4964  141.3186  166.8178 C.ar    1  UNL1        0.0021
     12 C         141.4216  141.9440  167.8192 C.ar    1  UNL1        0.0749
     13 C         141.2591  141.6443  169.2800 C.ar    1  UNL1        0.2900
     14 C         140.1714  140.7192  169.7393 C.ar    1  UNL1        0.0749
     15 C         139.2462  140.0939  168.7379 C.ar    1  UNL1        0.0021
     16 N         142.1844  142.2697  170.2814 N.pl3   1  UNL1        0.0809
     17 O         141.8126  142.2920  171.7344 O.2     1  UNL1        0.0415
     18 O         143.4813  142.8729  169.8298 O.co2   1  UNL1       -0.5760
     19 C         142.8428  138.3582  161.1515 C.3     1  UNL1        0.0769
     20 C         144.1145  139.1459  161.2618 C.3     1  UNL1        0.0437
     21 C         144.1611  140.3793  162.1142 C.ar    1  UNL1       -0.0204
     22 C         143.4498  141.6238  161.6722 C.ar    1  UNL1        0.0021
     23 C         143.4964  142.8572  162.5246 C.ar    1  UNL1        0.0749
     24 C         144.2544  142.8461  163.8190 C.ar    1  UNL1        0.2900
     25 C         144.9657  141.6017  164.2609 C.ar    1  UNL1        0.0749
     26 C         144.9190  140.3683  163.4086 C.ar    1  UNL1        0.0021
     27 N         144.3010  144.0795  164.6714 N.pl3   1  UNL1        0.0809
     28 O         144.9820  144.0426  166.0073 O.2     1  UNL1        0.0415
     29 O         143.6667  145.3499  164.1877 O.co2   1  UNL1       -0.5760
@<TRIPOS>UNITY_ATOM_ATTR
16 1
charge 1
18 1
charge -1
27 1
charge 1
29 1
charge -1
@<TRIPOS>BOND
     1     7     8    1
     2     8     9    1
     3     9    10    1
     4    10    11   ar
     5    11    12   ar
     6    12    13   ar
     7    13    16    1
     8    16    17    2
     9    16    18    1
    10    13    14   ar
    11    14    15   ar
    12     8     1    1
    13     1     2    1
    14     2     3    1
    15     3     4    1
    16     4    19    1
    17    19    20    1
    18    20    21    1
    19    21    22   ar
    20    22    23   ar
    21    23    24   ar
    22    24    27    1
    23    27    28    2
    24    27    29    1
    25    24    25   ar
    26    25    26   ar
    27     4     5    1
    28     5     6    1
    29    15    10   ar
    30     6     1    1
    31    26    21   ar
@<TRIPOS>MOLECULE
*****
 29 31 0 0 0
SMALL
GASTEIGER

@<TRIPOS>ATOM
      1 N         138.9792  142.7990  164.9429 N.3     1  UNL1       -0.2713
      2 C         137.9986  142.0443  164.0952 C.3     1  UNL1        0.0896
      3 C         137.9356  140.5477  164.1735 C.3     1  UNL1        0.0897
      4 N         138.8532  139.8058  165.0994 N.3     1  UNL1       -0.2700
      5 C         139.8339  140.5605  165.9472 C.3     1  UNL1        0.0897
      6 C         139.8969  142.0571  165.8690 C.3     1  UNL1        0.0896
      7 C         138.3722  145.1305  165.9155 C.3     1  UNL1        0.0177
      8 C         139.0422  144.2957  164.8647 C.3     1  UNL1        0.0620
      9 C         139.7752  144.9575  163.7357 C.3     1  UNL1        0.0423
     10 C         141.0382  144.3487  163.2023 C.ar    1  UNL1       -0.0204
     11 C         142.3689  144.8076  163.7204 C.ar    1  UNL1        0.0021
     12 C         143.6318  144.1989  163.1870 C.ar    1  UNL1        0.0749
     13 C         143.5639  143.1312  162.1355 C.ar    1  UNL1        0.2900
     14 C         142.2331  142.6723  161.6175 C.ar    1  UNL1        0.0749
     15 C         140.9703  143.2811  162.1509 C.ar    1  UNL1        0.0021
     16 N         144.8269  142.5225  161.6022 N.pl3   1  UNL1        0.0809
     17 O         145.7538  141.7886  162.5253 O.2     1  UNL1        0.0415
     18 O         145.1629  142.6476  160.1457 O.co2   1  UNL1       -0.5760
     19 C         138.7902  138.3091  165.1777 C.3     1  UNL1        0.0769
     20 C         138.8611  137.4889  163.9238 C.3     1  UNL1        0.0437
     21 C         139.9538  137.7364  162.9265 C.ar    1  UNL1       -0.0204
     22 C         139.6108  138.1348  161.5216 C.ar    1  UNL1        0.0021
     23 C         140.7035  138.3822  160.5242 C.ar    1  UNL1        0.0749
     24 C         142.1393  138.2313  160.9318 C.ar    1  UNL1        0.2900
     25 C         142.4822  137.8329  162.3367 C.ar    1  UNL1        0.0749
     26 C         141.3894  137.5855  163.3340 C.ar    1  UNL1        0.0021
     27 N         143.2320  138.4788  159.9345 N.pl3   1  UNL1        0.0809
     28 O         144.4885  139.1805  160.3572 O.2     1  UNL1        0.0415
     29 O         143.0682  138.0245  158.5143 O.co2   1  UNL1       -0.5760
@<TRIPOS>UNITY_ATOM_ATTR
16 1
charge 1
18 1
charge -1
27 1
charge 1
29 1
charge -1
@<TRIPOS>BOND
     1     7     8    1
     2     8     9    1
     3     9    10    1
     4    10    11   ar
     5    11    12   ar
     6    12    13   ar
     7    13    16    1
     8    16    17    2
     9    16    18    1
    10    13    14   ar
    11    14    15   ar
    12     8     1    1
    13     1     2    1
    14     2     3    1
    15     3     4    1
    16     4    19    1
    17    19    20    1
    18    20    21    1
    19    21    22   ar
    20    22    23   ar
    21    23    24   ar
    22    24    27    1
    23    27    28    2
    24    27    29    1
    25    24    25   ar
    26    25    26   ar
    27     4     5    1
    28     5     6    1
    29    15    10   ar
    30     6     1    1
    31    26    21   ar
