@<TRIPOS>MOLECULE
*****
 31 34 0 0 0
SMALL
GASTEIGER

@<TRIPOS>ATOM
      1 C         140.9584  141.7615  168.2584 C.3     1  UNL1        0.0840
      2 C         140.4853  143.0136  168.9356 C.3     1  UNL1        0.0095
      3 C         141.3268  143.6551  169.9987 C.3     1  UNL1        0.0005
      4 C         142.6415  143.0445  170.3847 C.3     1  UNL1        0.0005
      5 C         143.1145  141.7925  169.7076 C.3     1  UNL1        0.0082
      6 C         142.2730  141.1510  168.6444 C.3     1  UNL1        0.0705
      7 N         140.1017  141.6873  165.8068 N.am    1  UNL1       -0.2817
      8 C         140.1168  141.1200  167.1952 C.2     1  UNL1        0.2261
      9 O         139.2905  139.9112  167.5206 O.2     1  UNL1       -0.2748
     10 H         140.6441  142.4807  165.5932 H       1  UNL1        0.1549
     11 C         137.5209  143.0332  164.3312 C.3     1  UNL1        0.0553
     12 C         138.0739  141.6645  164.0654 C.ar    1  UNL1        0.0938
     13 N         137.5378  140.6741  163.0746 N.ar    1  UNL1       -0.1723
     14 N         138.3928  139.4433  163.1405 N.ar    1  UNL1       -0.2464
     15 C         138.2145  138.2009  162.3191 C.3     1  UNL1        0.1538
     16 C         139.4572  139.6731  164.1720 C.ar    1  UNL1        0.1110
     17 C         139.2602  141.0459  164.7436 C.ar    1  UNL1        0.0847
     18 C         142.7461  139.8989  167.9672 C.2     1  UNL1        0.1731
     19 O         142.9971  138.6592  168.7735 O.2     1  UNL1       -0.2913
     20 C         142.9681  139.8866  166.4838 C.ar    1  UNL1        0.0347
     21 C         142.6750  138.6468  165.6919 C.ar    1  UNL1        0.0029
     22 C         142.8971  138.6345  164.2084 C.ar    1  UNL1        0.0016
     23 C         143.4122  139.8620  163.5170 C.ar    1  UNL1        0.0171
     24 C         143.7052  141.1017  164.3089 C.ar    1  UNL1        0.0016
     25 C         143.4832  141.1140  165.7924 C.ar    1  UNL1        0.0029
     26 C         143.6342  139.8497  162.0335 C.ar    1  UNL1        0.0754
     27 C         143.2909  140.9567  161.0814 C.ar    1  UNL1        0.0409
     28 C         143.6831  140.5194  159.7012 C.ar    1  UNL1        0.1214
     29 N         144.2687  139.1420  159.8003 N.ar    1  UNL1       -0.1711
     30 N         144.2384  138.7281  161.2417 N.ar    1  UNL1       -0.2757
     31 H         144.5590  137.8708  161.6044 H       1  UNL1        0.1889
@<TRIPOS>BOND
     1    11    12    1
     2    12    13   ar
     3    13    14   ar
     4    14    15    1
     5    14    16   ar
     6    16    17   ar
     7    17     7    1
     8     7     8   am
     9     8     9    2
    10     1     8    1
    11     1     2    1
    12     2     3    1
    13     3     4    1
    14     4     5    1
    15     5     6    1
    16     6    18    1
    17    18    19    2
    18    18    20    1
    19    20    21   ar
    20    21    22   ar
    21    22    23   ar
    22    23    26    1
    23    26    27   ar
    24    27    28   ar
    25    28    29   ar
    26    29    30   ar
    27    23    24   ar
    28    24    25   ar
    29    17    12   ar
    30     6     1    1
    31    25    20   ar
    32    30    26   ar
    33     7    10    1
    34    30    31    1
@<TRIPOS>MOLECULE
*****
 31 34 0 0 0
SMALL
GASTEIGER

@<TRIPOS>ATOM
      1 C         140.6947  140.4690  167.8218 C.3     1  UNL1        0.0840
      2 C         139.5853  139.8739  168.6373 C.3     1  UNL1        0.0095
      3 C         139.0226  140.6308  169.8036 C.3     1  UNL1        0.0005
      4 C         139.5693  141.9829  170.1544 C.3     1  UNL1        0.0005
      5 C         140.6787  142.5780  169.3389 C.3     1  UNL1        0.0082
      6 C         141.2414  141.8210  168.1726 C.3     1  UNL1        0.0705
      7 N         140.5558  139.7462  165.3301 N.am    1  UNL1       -0.2817
      8 C         141.2575  139.7120  166.6554 C.2     1  UNL1        0.2261
      9 O         142.5219  138.9208  166.8143 O.2     1  UNL1       -0.2748
     10 H         139.7259  140.2655  165.2258 H       1  UNL1        0.1549
     11 C         138.9864  137.4904  163.5701 C.3     1  UNL1        0.0553
     12 C         140.3971  137.9525  163.3548 C.ar    1  UNL1        0.0938
     13 N         141.3341  137.4587  162.2926 N.ar    1  UNL1       -0.1723
     14 N         142.6346  138.1904  162.4451 N.ar    1  UNL1       -0.2464
     15 C         143.8543  138.0082  161.5912 C.3     1  UNL1        0.1538
     16 C         142.5013  139.1364  163.6015 C.ar    1  UNL1        0.1110
     17 C         141.1185  138.9893  164.1637 C.ar    1  UNL1        0.0847
     18 C         142.3509  142.4161  167.3571 C.2     1  UNL1        0.1731
     19 O         143.7238  142.5532  167.9454 O.2     1  UNL1       -0.2913
     20 C         142.0873  142.8740  165.9532 C.ar    1  UNL1        0.0347
     21 C         140.7092  143.3110  165.5531 C.ar    1  UNL1        0.0029
     22 C         140.4456  143.7689  164.1493 C.ar    1  UNL1        0.0016
     23 C         141.5602  143.7899  163.1455 C.ar    1  UNL1        0.0171
     24 C         142.9382  143.3530  163.5456 C.ar    1  UNL1        0.0016
     25 C         143.2017  142.8950  164.9495 C.ar    1  UNL1        0.0029
     26 C         141.2966  144.2478  161.7417 C.ar    1  UNL1        0.0754
     27 C         139.9983  144.1194  161.0014 C.ar    1  UNL1        0.0409
     28 C         140.1843  144.7068  159.6338 C.ar    1  UNL1        0.1214
     29 N         141.5976  145.1983  159.5288 N.ar    1  UNL1       -0.1711
     30 N         142.2850  144.9146  160.8315 N.ar    1  UNL1       -0.2757
     31 H         143.2207  145.1286  161.0507 H       1  UNL1        0.1889
@<TRIPOS>BOND
     1    11    12    1
     2    12    13   ar
     3    13    14   ar
     4    14    15    1
     5    14    16   ar
     6    16    17   ar
     7    17     7    1
     8     7     8   am
     9     8     9    2
    10     1     8    1
    11     1     2    1
    12     2     3    1
    13     3     4    1
    14     4     5    1
    15     5     6    1
    16     6    18    1
    17    18    19    2
    18    18    20    1
    19    20    21   ar
    20    21    22   ar
    21    22    23   ar
    22    23    26    1
    23    26    27   ar
    24    27    28   ar
    25    28    29   ar
    26    29    30   ar
    27    23    24   ar
    28    24    25   ar
    29    17    12   ar
    30     6     1    1
    31    25    20   ar
    32    30    26   ar
    33     7    10    1
    34    30    31    1
@<TRIPOS>MOLECULE
*****
 31 34 0 0 0
SMALL
GASTEIGER

@<TRIPOS>ATOM
      1 C         141.6080  139.6474  167.3829 C.3     1  UNL1        0.0840
      2 C         142.6088  139.5734  168.4978 C.3     1  UNL1        0.0095
      3 C         142.1758  139.8233  169.9120 C.3     1  UNL1        0.0005
      4 C         140.7421  140.1472  170.2113 C.3     1  UNL1        0.0005
      5 C         139.7414  140.2212  169.0964 C.3     1  UNL1        0.0082
      6 C         140.1743  139.9713  167.6822 C.3     1  UNL1        0.0705
      7 N         142.5947  140.5215  165.1440 N.am    1  UNL1       -0.2817
      8 C         142.0410  139.3975  165.9686 C.2     1  UNL1        0.2261
      9 O         141.9202  138.0235  165.3789 O.2     1  UNL1       -0.2748
     10 H         142.6740  141.4233  165.5310 H       1  UNL1        0.1549
     11 C         145.5644  141.0929  163.9178 C.3     1  UNL1        0.0553
     12 C         144.3927  140.5343  163.1662 C.ar    1  UNL1        0.0938
     13 N         144.3803  140.1402  161.7189 N.ar    1  UNL1       -0.1723
     14 N         143.0075  139.6340  161.3881 N.ar    1  UNL1       -0.2464
     15 C         142.5509  139.1343  160.0495 C.3     1  UNL1        0.1538
     16 C         142.1716  139.7152  162.6309 C.ar    1  UNL1        0.1110
     17 C         143.0276  140.2716  163.7298 C.ar    1  UNL1        0.0847
     18 C         139.1736  140.0453  166.5672 C.2     1  UNL1        0.1731
     19 O         138.0493  139.0545  166.5016 O.2     1  UNL1       -0.2913
     20 C         139.2972  141.1100  165.5179 C.ar    1  UNL1        0.0347
     21 C         139.8012  142.4734  165.8886 C.ar    1  UNL1        0.0029
     22 C         139.9249  143.5381  164.8393 C.ar    1  UNL1        0.0016
     23 C         139.5445  143.2395  163.4193 C.ar    1  UNL1        0.0171
     24 C         139.0405  141.8762  163.0487 C.ar    1  UNL1        0.0016
     25 C         138.9169  140.8114  164.0980 C.ar    1  UNL1        0.0029
     26 C         139.6681  144.3042  162.3700 C.ar    1  UNL1        0.0754
     27 C         140.6781  144.3366  161.2615 C.ar    1  UNL1        0.0409
     28 C         140.4377  145.5759  160.4513 C.ar    1  UNL1        0.1214
     29 N         139.2791  146.3095  161.0592 N.ar    1  UNL1       -0.1711
     30 N         138.8035  145.5235  162.2450 N.ar    1  UNL1       -0.2757
     31 H         138.0552  145.7655  162.8372 H       1  UNL1        0.1889
@<TRIPOS>BOND
     1    11    12    1
     2    12    13   ar
     3    13    14   ar
     4    14    15    1
     5    14    16   ar
     6    16    17   ar
     7    17     7    1
     8     7     8   am
     9     8     9    2
    10     1     8    1
    11     1     2    1
    12     2     3    1
    13     3     4    1
    14     4     5    1
    15     5     6    1
    16     6    18    1
    17    18    19    2
    18    18    20    1
    19    20    21   ar
    20    21    22   ar
    21    22    23   ar
    22    23    26    1
    23    26    27   ar
    24    27    28   ar
    25    28    29   ar
    26    29    30   ar
    27    23    24   ar
    28    24    25   ar
    29    17    12   ar
    30     6     1    1
    31    25    20   ar
    32    30    26   ar
    33     7    10    1
    34    30    31    1
@<TRIPOS>MOLECULE
*****
 31 34 0 0 0
SMALL
GASTEIGER

@<TRIPOS>ATOM
      1 C         139.6414  140.1220  162.1015 C.3     1  UNL1        0.0840
      2 C         138.6196  140.5842  161.1053 C.3     1  UNL1        0.0095
      3 C         137.4750  139.6884  160.7345 C.3     1  UNL1        0.0005
      4 C         137.3523  138.3305  161.3598 C.3     1  UNL1        0.0005
      5 C         138.3741  137.8684  162.3560 C.3     1  UNL1        0.0082
      6 C         139.5186  138.7641  162.7268 C.3     1  UNL1        0.0705
      7 N         140.5955  142.0903  163.5036 N.am    1  UNL1       -0.2817
      8 C         140.7860  141.0178  162.4723 C.2     1  UNL1        0.2261
      9 O         142.1211  140.8411  161.8119 O.2     1  UNL1       -0.2748
     10 H         139.7191  142.2062  163.9371 H       1  UNL1        0.1549
     11 C         141.1139  145.1076  162.3738 C.3     1  UNL1        0.0553
     12 C         141.9783  144.3729  163.3552 C.ar    1  UNL1        0.0938
     13 N         143.2328  144.8962  163.9895 N.ar    1  UNL1       -0.1723
     14 N         143.7698  143.8327  164.9009 N.ar    1  UNL1       -0.2464
     15 C         145.0114  143.9323  165.7366 C.3     1  UNL1        0.1538
     16 C         142.8472  142.6522  164.8298 C.ar    1  UNL1        0.1110
     17 C         141.7400  142.9860  163.8745 C.ar    1  UNL1        0.0847
     18 C         140.5405  138.3020  163.7229 C.2     1  UNL1        0.1731
     19 O         141.5670  137.2827  163.3264 O.2     1  UNL1       -0.2913
     20 C         140.5358  138.8592  165.1156 C.ar    1  UNL1        0.0347
     21 C         141.8323  139.1170  165.8247 C.ar    1  UNL1        0.0029
     22 C         141.8276  139.6742  167.2173 C.ar    1  UNL1        0.0016
     23 C         140.5264  139.9737  167.9009 C.ar    1  UNL1        0.0171
     24 C         139.2300  139.7160  167.1918 C.ar    1  UNL1        0.0016
     25 C         139.2347  139.1587  165.7992 C.ar    1  UNL1        0.0029
     26 C         140.5217  140.5309  169.2935 C.ar    1  UNL1        0.0754
     27 C         140.4849  141.9846  169.6614 C.ar    1  UNL1        0.0409
     28 C         140.4934  142.0845  171.1581 C.ar    1  UNL1        0.1214
     29 N         140.5355  140.6924  171.7152 N.ar    1  UNL1       -0.1711
     30 N         140.5530  139.7323  170.5629 N.ar    1  UNL1       -0.2757
     31 H         140.5803  138.7503  170.6282 H       1  UNL1        0.1889
@<TRIPOS>BOND
     1    11    12    1
     2    12    13   ar
     3    13    14   ar
     4    14    15    1
     5    14    16   ar
     6    16    17   ar
     7    17     7    1
     8     7     8   am
     9     8     9    2
    10     1     8    1
    11     1     2    1
    12     2     3    1
    13     3     4    1
    14     4     5    1
    15     5     6    1
    16     6    18    1
    17    18    19    2
    18    18    20    1
    19    20    21   ar
    20    21    22   ar
    21    22    23   ar
    22    23    26    1
    23    26    27   ar
    24    27    28   ar
    25    28    29   ar
    26    29    30   ar
    27    23    24   ar
    28    24    25   ar
    29    17    12   ar
    30     6     1    1
    31    25    20   ar
    32    30    26   ar
    33     7    10    1
    34    30    31    1
@<TRIPOS>MOLECULE
*****
 31 34 0 0 0
SMALL
GASTEIGER

@<TRIPOS>ATOM
      1 C         140.8814  142.0051  167.9267 C.3     1  UNL1        0.0840
      2 C         140.3520  142.9352  168.9776 C.3     1  UNL1        0.0095
      3 C         141.2579  143.4314  170.0652 C.3     1  UNL1        0.0005
      4 C         142.6933  142.9975  170.1019 C.3     1  UNL1        0.0005
      5 C         143.2228  142.0674  169.0510 C.3     1  UNL1        0.0082
      6 C         142.3168  141.5711  167.9634 C.3     1  UNL1        0.0705
      7 N         139.8552  142.2752  165.5552 N.am    1  UNL1       -0.2817
      8 C         139.9755  141.5088  166.8390 C.2     1  UNL1        0.2261
      9 O         139.1898  140.2461  167.0351 O.2     1  UNL1       -0.2748
     10 H         140.3708  143.1039  165.4265 H       1  UNL1        0.1549
     11 C         137.3352  143.9002  164.2675 C.3     1  UNL1        0.0553
     12 C         137.7910  142.5259  163.8756 C.ar    1  UNL1        0.0938
     13 N         137.1684  141.6573  162.8231 N.ar    1  UNL1       -0.1723
     14 N         137.9420  140.3734  162.7644 N.ar    1  UNL1       -0.2464
     15 C         137.6638  139.2174  161.8500 C.3     1  UNL1        0.1538
     16 C         139.0426  140.4487  163.7807 C.ar    1  UNL1        0.1110
     17 C         138.9493  141.7790  164.4675 C.ar    1  UNL1        0.0847
     18 C         142.8462  140.6409  166.9124 C.2     1  UNL1        0.1731
     19 O         143.2329  139.2385  167.2780 O.2     1  UNL1       -0.2913
     20 C         142.9890  141.1132  165.4959 C.ar    1  UNL1        0.0347
     21 C         143.5078  142.4921  165.2137 C.ar    1  UNL1        0.0029
     22 C         143.6505  142.9644  163.7971 C.ar    1  UNL1        0.0016
     23 C         143.2744  142.0578  162.6628 C.ar    1  UNL1        0.0171
     24 C         142.7556  140.6790  162.9450 C.ar    1  UNL1        0.0016
     25 C         142.6129  140.2067  164.3615 C.ar    1  UNL1        0.0029
     26 C         143.4172  142.5300  161.2462 C.ar    1  UNL1        0.0754
     27 C         144.4615  142.0804  160.2679 C.ar    1  UNL1        0.0409
     28 C         144.2304  142.8073  158.9763 C.ar    1  UNL1        0.1214
     29 N         143.0432  143.7063  159.1564 N.ar    1  UNL1       -0.1711
     30 N         142.5406  143.5349  160.5593 N.ar    1  UNL1       -0.2757
     31 H         141.7706  144.0002  160.9590 H       1  UNL1        0.1889
@<TRIPOS>BOND
     1    11    12    1
     2    12    13   ar
     3    13    14   ar
     4    14    15    1
     5    14    16   ar
     6    16    17   ar
     7    17     7    1
     8     7     8   am
     9     8     9    2
    10     1     8    1
    11     1     2    1
    12     2     3    1
    13     3     4    1
    14     4     5    1
    15     5     6    1
    16     6    18    1
    17    18    19    2
    18    18    20    1
    19    20    21   ar
    20    21    22   ar
    21    22    23   ar
    22    23    26    1
    23    26    27   ar
    24    27    28   ar
    25    28    29   ar
    26    29    30   ar
    27    23    24   ar
    28    24    25   ar
    29    17    12   ar
    30     6     1    1
    31    25    20   ar
    32    30    26   ar
    33     7    10    1
    34    30    31    1
@<TRIPOS>MOLECULE
*****
 31 34 0 0 0
SMALL
GASTEIGER

@<TRIPOS>ATOM
      1 C         141.1837  142.0307  168.2146 C.3     1  UNL1        0.0840
      2 C         141.9005  142.8857  169.2171 C.3     1  UNL1        0.0095
      3 C         142.1315  142.3758  170.6088 C.3     1  UNL1        0.0005
      4 C         141.6457  141.0110  170.9978 C.3     1  UNL1        0.0005
      5 C         140.9289  140.1561  169.9952 C.3     1  UNL1        0.0082
      6 C         140.6979  140.6659  168.6036 C.3     1  UNL1        0.0705
      7 N         139.6267  143.1365  166.4529 N.am    1  UNL1       -0.2817
      8 C         140.9526  142.5405  166.8229 C.2     1  UNL1        0.2261
      9 O         142.0474  142.4543  165.8012 O.2     1  UNL1       -0.2748
     10 H         138.9082  143.1930  167.1235 H       1  UNL1        0.1549
     11 C         137.5739  141.8620  164.2595 C.3     1  UNL1        0.0553
     12 C         138.4521  143.0605  164.0531 C.ar    1  UNL1        0.0938
     13 N         138.5408  143.8835  162.8022 N.ar    1  UNL1       -0.1723
     14 N         139.5393  144.9780  163.0373 N.ar    1  UNL1       -0.2464
     15 C         139.9392  146.0337  162.0497 C.3     1  UNL1        0.1538
     16 C         140.0676  144.8313  164.4335 C.ar    1  UNL1        0.1110
     17 C         139.3957  143.6462  165.0613 C.ar    1  UNL1        0.0847
     18 C         139.9811  139.8109  167.6010 C.2     1  UNL1        0.1731
     19 O         138.5905  139.3264  167.8862 O.2     1  UNL1       -0.2913
     20 C         140.6550  139.4404  166.3131 C.ar    1  UNL1        0.0347
     21 C         142.1098  139.0749  166.3059 C.ar    1  UNL1        0.0029
     22 C         142.7837  138.7044  165.0180 C.ar    1  UNL1        0.0016
     23 C         142.0028  138.6995  163.7373 C.ar    1  UNL1        0.0171
     24 C         140.5480  139.0651  163.7445 C.ar    1  UNL1        0.0016
     25 C         139.8742  139.4355  165.0324 C.ar    1  UNL1        0.0029
     26 C         142.6766  138.3291  162.4494 C.ar    1  UNL1        0.0754
     27 C         141.9991  137.8003  161.2201 C.ar    1  UNL1        0.0409
     28 C         143.0501  137.5668  160.1756 C.ar    1  UNL1        0.1214
     29 N         144.3772  137.9512  160.7595 N.ar    1  UNL1       -0.1711
     30 N         144.1464  138.4224  162.1647 N.ar    1  UNL1       -0.2757
     31 H         144.8382  138.7374  162.7904 H       1  UNL1        0.1889
@<TRIPOS>BOND
     1    11    12    1
     2    12    13   ar
     3    13    14   ar
     4    14    15    1
     5    14    16   ar
     6    16    17   ar
     7    17     7    1
     8     7     8   am
     9     8     9    2
    10     1     8    1
    11     1     2    1
    12     2     3    1
    13     3     4    1
    14     4     5    1
    15     5     6    1
    16     6    18    1
    17    18    19    2
    18    18    20    1
    19    20    21   ar
    20    21    22   ar
    21    22    23   ar
    22    23    26    1
    23    26    27   ar
    24    27    28   ar
    25    28    29   ar
    26    29    30   ar
    27    23    24   ar
    28    24    25   ar
    29    17    12   ar
    30     6     1    1
    31    25    20   ar
    32    30    26   ar
    33     7    10    1
    34    30    31    1
@<TRIPOS>MOLECULE
*****
 31 34 0 0 0
SMALL
GASTEIGER

@<TRIPOS>ATOM
      1 C         141.9739  141.6976  167.8747 C.3     1  UNL1        0.0840
      2 C         142.9865  142.3424  168.7741 C.3     1  UNL1        0.0095
      3 C         143.4559  141.6295  170.0075 C.3     1  UNL1        0.0005
      4 C         142.9129  140.2718  170.3415 C.3     1  UNL1        0.0005
      5 C         141.9003  139.6269  169.4422 C.3     1  UNL1        0.0082
      6 C         141.4309  140.3398  168.2088 C.3     1  UNL1        0.0705
      7 N         142.3637  142.4274  165.4119 N.am    1  UNL1       -0.2817
      8 C         141.5044  142.4105  166.6412 C.2     1  UNL1        0.2261
      9 O         140.1756  143.1064  166.6371 O.2     1  UNL1       -0.2748
     10 H         143.2358  141.9707  165.4146 H       1  UNL1        0.1549
     11 C         143.6689  145.1389  164.1496 C.3     1  UNL1        0.0553
     12 C         142.4942  144.3866  163.5982 C.ar    1  UNL1        0.0938
     13 N         141.7132  144.7486  162.3698 N.ar    1  UNL1       -0.1723
     14 N         140.6305  143.7259  162.1908 N.ar    1  UNL1       -0.2464
     15 C         139.6143  143.7015  161.0878 C.3     1  UNL1        0.1538
     16 C         140.7424  142.7319  163.3086 C.ar    1  UNL1        0.1110
     17 C         141.8943  143.1403  164.1784 C.ar    1  UNL1        0.0847
     18 C         140.4183  139.6950  167.3093 C.2     1  UNL1        0.1731
     19 O         139.0388  139.4029  167.8209 O.2     1  UNL1       -0.2913
     20 C         140.7852  139.3422  165.8983 C.ar    1  UNL1        0.0347
     21 C         139.7685  139.4751  164.8034 C.ar    1  UNL1        0.0029
     22 C         140.1355  139.1223  163.3924 C.ar    1  UNL1        0.0016
     23 C         141.5191  138.6367  163.0763 C.ar    1  UNL1        0.0171
     24 C         142.5357  138.5039  164.1712 C.ar    1  UNL1        0.0016
     25 C         142.1688  138.8566  165.5822 C.ar    1  UNL1        0.0029
     26 C         141.8861  138.2840  161.6653 C.ar    1  UNL1        0.0754
     27 C         141.2723  138.8609  160.4242 C.ar    1  UNL1        0.0409
     28 C         141.9381  138.2259  159.2395 C.ar    1  UNL1        0.1214
     29 N         142.9634  137.2565  159.7485 N.ar    1  UNL1       -0.1711
     30 N         142.9312  137.2924  161.2477 N.ar    1  UNL1       -0.2757
     31 H         143.4968  136.7588  161.8516 H       1  UNL1        0.1889
@<TRIPOS>BOND
     1    11    12    1
     2    12    13   ar
     3    13    14   ar
     4    14    15    1
     5    14    16   ar
     6    16    17   ar
     7    17     7    1
     8     7     8   am
     9     8     9    2
    10     1     8    1
    11     1     2    1
    12     2     3    1
    13     3     4    1
    14     4     5    1
    15     5     6    1
    16     6    18    1
    17    18    19    2
    18    18    20    1
    19    20    21   ar
    20    21    22   ar
    21    22    23   ar
    22    23    26    1
    23    26    27   ar
    24    27    28   ar
    25    28    29   ar
    26    29    30   ar
    27    23    24   ar
    28    24    25   ar
    29    17    12   ar
    30     6     1    1
    31    25    20   ar
    32    30    26   ar
    33     7    10    1
    34    30    31    1
@<TRIPOS>MOLECULE
*****
 31 34 0 0 0
SMALL
GASTEIGER

@<TRIPOS>ATOM
      1 C         142.5064  142.4644  164.1365 C.3     1  UNL1        0.0840
      2 C         142.0697  143.8841  164.3458 C.3     1  UNL1        0.0095
      3 C         142.8517  145.0074  163.7322 C.3     1  UNL1        0.0005
      4 C         144.0704  144.7111  162.9093 C.3     1  UNL1        0.0005
      5 C         144.5071  143.2915  162.7001 C.3     1  UNL1        0.0082
      6 C         143.7251  142.1681  163.3137 C.3     1  UNL1        0.0705
      7 N         140.5236  140.7883  164.0413 N.am    1  UNL1       -0.2817
      8 C         141.7244  141.3410  164.7501 C.2     1  UNL1        0.2261
      9 O         142.1433  140.7702  166.0725 O.2     1  UNL1       -0.2748
     10 H         140.2486  141.1629  163.1733 H       1  UNL1        0.1549
     11 C         140.4847  137.6919  163.0116 C.3     1  UNL1        0.0553
     12 C         139.7237  138.2417  164.1815 C.ar    1  UNL1        0.0938
     13 N         138.8113  137.4646  165.0835 N.ar    1  UNL1       -0.1723
     14 N         138.2652  138.4077  166.1144 N.ar    1  UNL1       -0.2464
     15 C         137.3116  138.0531  167.2166 C.3     1  UNL1        0.1538
     16 C         138.8402  139.7675  165.8494 C.ar    1  UNL1        0.1110
     17 C         139.7416  139.6649  164.6548 C.ar    1  UNL1        0.0847
     18 C         144.1618  140.7484  163.1045 C.2     1  UNL1        0.1731
     19 O         145.0589  140.0842  164.1064 O.2     1  UNL1       -0.2913
     20 C         143.7013  139.9928  161.8932 C.ar    1  UNL1        0.0347
     21 C         143.8948  138.5072  161.8175 C.ar    1  UNL1        0.0029
     22 C         143.4342  137.7517  160.6063 C.ar    1  UNL1        0.0016
     23 C         142.7802  138.4817  159.4708 C.ar    1  UNL1        0.0171
     24 C         142.5867  139.9672  159.5465 C.ar    1  UNL1        0.0016
     25 C         143.0472  140.7228  160.7577 C.ar    1  UNL1        0.0029
     26 C         142.3197  137.7262  158.2596 C.ar    1  UNL1        0.0754
     27 C         141.0253  137.9335  157.5305 C.ar    1  UNL1        0.0409
     28 C         140.9783  136.9661  156.3851 C.ar    1  UNL1        0.1214
     29 N         142.2437  136.1609  156.4062 N.ar    1  UNL1       -0.1711
     30 N         143.0727  136.6307  157.5647 N.ar    1  UNL1       -0.2757
     31 H         143.9559  136.2813  157.8236 H       1  UNL1        0.1889
@<TRIPOS>BOND
     1    11    12    1
     2    12    13   ar
     3    13    14   ar
     4    14    15    1
     5    14    16   ar
     6    16    17   ar
     7    17     7    1
     8     7     8   am
     9     8     9    2
    10     1     8    1
    11     1     2    1
    12     2     3    1
    13     3     4    1
    14     4     5    1
    15     5     6    1
    16     6    18    1
    17    18    19    2
    18    18    20    1
    19    20    21   ar
    20    21    22   ar
    21    22    23   ar
    22    23    26    1
    23    26    27   ar
    24    27    28   ar
    25    28    29   ar
    26    29    30   ar
    27    23    24   ar
    28    24    25   ar
    29    17    12   ar
    30     6     1    1
    31    25    20   ar
    32    30    26   ar
    33     7    10    1
    34    30    31    1
@<TRIPOS>MOLECULE
*****
 31 34 0 0 0
SMALL
GASTEIGER

@<TRIPOS>ATOM
      1 C         142.5768  141.5582  162.5219 C.3     1  UNL1        0.0840
      2 C         143.6200  140.9130  161.6587 C.3     1  UNL1        0.0095
      3 C         144.7623  141.7271  161.1275 C.3     1  UNL1        0.0005
      4 C         144.8614  143.1866  161.4596 C.3     1  UNL1        0.0005
      5 C         143.8182  143.8318  162.3229 C.3     1  UNL1        0.0082
      6 C         142.6759  143.0177  162.8540 C.3     1  UNL1        0.0705
      7 N         141.5967  139.9636  164.3238 N.am    1  UNL1       -0.2817
      8 C         141.4344  140.7441  163.0532 C.2     1  UNL1        0.2261
      9 O         140.1297  140.7104  162.3138 O.2     1  UNL1       -0.2748
     10 H         142.4530  139.9857  164.8091 H       1  UNL1        0.1549
     11 C         140.6594  137.0338  163.2343 C.3     1  UNL1        0.0553
     12 C         140.0236  137.8028  164.3543 C.ar    1  UNL1        0.0938
     13 N         138.8453  137.3601  165.1700 N.ar    1  UNL1       -0.1723
     14 N         138.5478  138.4332  166.1751 N.ar    1  UNL1       -0.2464
     15 C         137.4488  138.4053  167.1956 C.3     1  UNL1        0.1538
     16 C         139.5423  139.5391  165.9804 C.ar    1  UNL1        0.1110
     17 C         140.4544  139.1495  164.8551 C.ar    1  UNL1        0.0847
     18 C         141.6326  143.6629  163.7174 C.2     1  UNL1        0.1731
     19 O         140.7366  144.7217  163.1464 O.2     1  UNL1       -0.2913
     20 C         141.4854  143.2493  165.1517 C.ar    1  UNL1        0.0347
     21 C         140.1517  143.3561  165.8300 C.ar    1  UNL1        0.0029
     22 C         140.0045  142.9425  167.2643 C.ar    1  UNL1        0.0016
     23 C         141.1910  142.4221  168.0203 C.ar    1  UNL1        0.0171
     24 C         142.5246  142.3154  167.3421 C.ar    1  UNL1        0.0016
     25 C         142.6718  142.7290  165.9078 C.ar    1  UNL1        0.0029
     26 C         141.0438  142.0085  169.4547 C.ar    1  UNL1        0.0754
     27 C         140.9787  140.5990  169.9636 C.ar    1  UNL1        0.0409
     28 C         140.8305  140.6511  171.4554 C.ar    1  UNL1        0.1214
     29 N         140.8041  142.0929  171.8684 N.ar    1  UNL1       -0.1711
     30 N         140.9359  142.9318  170.6319 N.ar    1  UNL1       -0.2757
     31 H         140.9492  143.9156  170.5988 H       1  UNL1        0.1889
@<TRIPOS>BOND
     1    11    12    1
     2    12    13   ar
     3    13    14   ar
     4    14    15    1
     5    14    16   ar
     6    16    17   ar
     7    17     7    1
     8     7     8   am
     9     8     9    2
    10     1     8    1
    11     1     2    1
    12     2     3    1
    13     3     4    1
    14     4     5    1
    15     5     6    1
    16     6    18    1
    17    18    19    2
    18    18    20    1
    19    20    21   ar
    20    21    22   ar
    21    22    23   ar
    22    23    26    1
    23    26    27   ar
    24    27    28   ar
    25    28    29   ar
    26    29    30   ar
    27    23    24   ar
    28    24    25   ar
    29    17    12   ar
    30     6     1    1
    31    25    20   ar
    32    30    26   ar
    33     7    10    1
    34    30    31    1
