@<TRIPOS>MOLECULE
*****
 37 40 0 0 0
SMALL
GASTEIGER

@<TRIPOS>ATOM
      1 C         138.1189  140.8298  162.8682 C.ar    1  UNL1        0.1534
      2 C         137.5849  139.9704  163.9756 C.ar    1  UNL1        0.0591
      3 C         138.2446  139.9872  165.3226 C.ar    1  UNL1        0.1072
      4 N         137.7106  139.1278  166.4301 N.ar    1  UNL1       -0.1477
      5 N         138.3704  139.1446  167.7771 N.ar    1  UNL1       -0.1421
      6 C         139.5641  140.0208  168.0167 C.ar    1  UNL1        0.1690
      7 C         140.0980  140.8802  166.9093 C.ar    1  UNL1        0.0740
      8 C         139.4383  140.8634  165.5623 C.ar    1  UNL1        0.0359
      9 C         139.9723  141.7227  164.4549 C.ar    1  UNL1        0.0204
     10 C         139.3125  141.7059  163.1078 C.ar    1  UNL1        0.0825
     11 N         139.8465  142.5653  162.0004 N.pl3   1  UNL1       -0.3022
     12 C         139.4783  144.0179  161.9343 C.3     1  UNL1        0.1100
     13 C         140.0123  144.8773  160.8269 C.3     1  UNL1        0.1168
     14 N         140.9145  144.2841  159.7856 N.3     1  UNL1       -0.1559
     15 C         141.2827  142.8315  159.8518 C.3     1  UNL1        0.1168
     16 C         140.7487  141.9721  160.9592 C.3     1  UNL1        0.1100
     17 S         141.4485  145.1435  158.6783 S.O2    1  UNL1        0.0458
     18 C         141.9824  146.0029  157.5709 C.3     1  UNL1        0.1960
     19 O         142.7498  144.3992  158.7281 O.2     1  UNL1       -0.1572
     20 O         140.1471  145.8878  158.6285 O.2     1  UNL1       -0.1572
     21 C         140.2238  140.0376  169.3637 C.2     1  UNL1        0.2635
     22 N         139.3912  139.9430  170.6079 N.am    1  UNL1       -0.3240
     23 O         141.7161  140.1491  169.4666 O.2     1  UNL1       -0.2686
     24 H         138.4117  139.8698  170.5403 H       1  UNL1        0.1453
     25 H         139.8242  139.9540  171.4920 H       1  UNL1        0.1453
     26 C         137.6630  139.6463  160.6007 C.3     1  UNL1        0.2525
     27 O         137.4591  140.8130  161.5212 O.3     1  UNL1       -0.4701
     28 N         141.2917  141.7563  167.1489 N.pl3   1  UNL1       -0.3094
     29 H         141.3100  142.3619  167.9249 H       1  UNL1        0.1523
     30 C         142.4576  141.7098  166.2062 C.ar    1  UNL1        0.0761
     31 C         143.0348  142.9836  165.6638 C.ar    1  UNL1        0.0166
     32 C         144.2006  142.9372  164.7212 C.ar    1  UNL1       -0.0028
     33 C         144.7893  141.6168  164.3208 C.ar    1  UNL1       -0.0195
     34 C         145.9551  141.5703  163.3782 C.3     1  UNL1        0.0311
     35 C         144.2121  140.3430  164.8632 C.ar    1  UNL1        0.0267
     36 C         143.0462  140.3895  165.8059 C.ar    1  UNL1        0.1531
     37 F         142.4690  139.1157  166.3483 F       1  UNL1       -0.2029
@<TRIPOS>BOND
     1    26    27    1
     2    27     1    1
     3     1     2   ar
     4     2     3   ar
     5     3     4   ar
     6     4     5   ar
     7     5     6   ar
     8     6    21    1
     9    21    22   am
    10    21    23    2
    11     6     7   ar
    12     7    28    1
    13    28    30    1
    14    30    31   ar
    15    31    32   ar
    16    32    33   ar
    17    33    34    1
    18    33    35   ar
    19    35    36   ar
    20    36    37    1
    21     7     8   ar
    22     8     9   ar
    23     9    10   ar
    24    10    11    1
    25    11    12    1
    26    12    13    1
    27    13    14    1
    28    14    17    1
    29    17    18    1
    30    17    19    2
    31    17    20    2
    32    14    15    1
    33    15    16    1
    34    10     1   ar
    35    16    11    1
    36     8     3   ar
    37    36    30   ar
    38    22    24    1
    39    22    25    1
    40    28    29    1
@<TRIPOS>MOLECULE
*****
 37 40 0 0 0
SMALL
GASTEIGER

@<TRIPOS>ATOM
      1 C         138.9199  138.1662  164.1250 C.ar    1  UNL1        0.1534
      2 C         138.2208  138.0403  165.4460 C.ar    1  UNL1        0.0591
      3 C         138.6718  138.8650  166.6149 C.ar    1  UNL1        0.1072
      4 N         137.9726  138.7391  167.9360 N.ar    1  UNL1       -0.1477
      5 N         138.4236  139.5638  169.1049 N.ar    1  UNL1       -0.1421
      6 C         139.5738  140.5146  168.9527 C.ar    1  UNL1        0.1690
      7 C         140.2730  140.6405  167.6317 C.ar    1  UNL1        0.0740
      8 C         139.8220  139.8157  166.4628 C.ar    1  UNL1        0.0359
      9 C         140.5211  139.9416  165.1417 C.ar    1  UNL1        0.0204
     10 C         140.0701  139.1169  163.9728 C.ar    1  UNL1        0.0825
     11 N         140.7693  139.2428  162.6517 N.pl3   1  UNL1       -0.3022
     12 C         140.5935  140.4822  161.8252 C.3     1  UNL1        0.1100
     13 C         141.2927  140.6082  160.5042 C.3     1  UNL1        0.1168
     14 N         142.1677  139.4948  160.0095 N.3     1  UNL1       -0.1559
     15 C         142.3436  138.2554  160.8359 C.3     1  UNL1        0.1168
     16 C         141.6444  138.1294  162.1571 C.3     1  UNL1        0.1100
     17 S         142.8669  139.6208  158.6884 S.O2    1  UNL1        0.0458
     18 C         143.5661  139.7468  157.3674 C.3     1  UNL1        0.1960
     19 O         144.1834  139.3665  159.3609 O.2     1  UNL1       -0.1572
     20 O         141.5505  139.8750  158.0160 O.2     1  UNL1       -0.1572
     21 C         140.0249  141.3393  170.1216 C.2     1  UNL1        0.2635
     22 N         140.4114  140.6700  171.4072 N.am    1  UNL1       -0.3240
     23 O         140.0894  142.8334  170.0050 O.2     1  UNL1       -0.2686
     24 H         140.3691  139.6894  171.4837 H       1  UNL1        0.1453
     25 H         140.7075  141.2113  172.1744 H       1  UNL1        0.1453
     26 C         137.7192  137.9860  161.8280 C.3     1  UNL1        0.2525
     27 O         138.4689  137.3414  162.9561 O.3     1  UNL1       -0.4701
     28 N         141.4232  141.5912  167.4795 N.pl3   1  UNL1       -0.3094
     29 H         142.1682  141.5694  168.1227 H       1  UNL1        0.1523
     30 C         141.4383  142.5751  166.3473 C.ar    1  UNL1        0.0761
     31 C         140.1970  143.3451  166.0063 C.ar    1  UNL1        0.0166
     32 C         140.2121  144.3290  164.8741 C.ar    1  UNL1       -0.0028
     33 C         141.4685  144.5428  164.0830 C.ar    1  UNL1       -0.0195
     34 C         141.4835  145.5267  162.9508 C.3     1  UNL1        0.0311
     35 C         142.7097  143.7728  164.4240 C.ar    1  UNL1        0.0267
     36 C         142.6946  142.7889  165.5562 C.ar    1  UNL1        0.1531
     37 F         143.9359  142.0188  165.8972 F       1  UNL1       -0.2029
@<TRIPOS>BOND
     1    26    27    1
     2    27     1    1
     3     1     2   ar
     4     2     3   ar
     5     3     4   ar
     6     4     5   ar
     7     5     6   ar
     8     6    21    1
     9    21    22   am
    10    21    23    2
    11     6     7   ar
    12     7    28    1
    13    28    30    1
    14    30    31   ar
    15    31    32   ar
    16    32    33   ar
    17    33    34    1
    18    33    35   ar
    19    35    36   ar
    20    36    37    1
    21     7     8   ar
    22     8     9   ar
    23     9    10   ar
    24    10    11    1
    25    11    12    1
    26    12    13    1
    27    13    14    1
    28    14    17    1
    29    17    18    1
    30    17    19    2
    31    17    20    2
    32    14    15    1
    33    15    16    1
    34    10     1   ar
    35    16    11    1
    36     8     3   ar
    37    36    30   ar
    38    22    24    1
    39    22    25    1
    40    28    29    1
@<TRIPOS>MOLECULE
*****
 37 40 0 0 0
SMALL
GASTEIGER

@<TRIPOS>ATOM
      1 C         139.4863  138.2009  162.5974 C.ar    1  UNL1        0.1534
      2 C         139.3512  137.9976  161.1174 C.ar    1  UNL1        0.0591
      3 C         139.0222  139.1595  160.2276 C.ar    1  UNL1        0.1072
      4 N         138.8871  138.9561  158.7476 N.ar    1  UNL1       -0.1477
      5 N         138.5580  140.1180  157.8578 N.ar    1  UNL1       -0.1421
      6 C         138.3640  141.4833  158.4481 C.ar    1  UNL1        0.1690
      7 C         138.4991  141.6867  159.9281 C.ar    1  UNL1        0.0740
      8 C         138.8282  140.5248  160.8178 C.ar    1  UNL1        0.0359
      9 C         138.9633  140.7281  162.2978 C.ar    1  UNL1        0.0204
     10 C         139.2924  139.5662  163.1876 C.ar    1  UNL1        0.0825
     11 N         139.4275  139.7696  164.6676 N.pl3   1  UNL1       -0.3022
     12 C         138.4263  139.1591  165.6030 C.3     1  UNL1        0.1100
     13 C         138.5613  139.3625  167.0830 C.3     1  UNL1        0.1168
     14 N         139.6976  140.1764  167.6276 N.3     1  UNL1       -0.1559
     15 C         140.6988  140.7869  166.6922 C.3     1  UNL1        0.1168
     16 C         140.5637  140.5835  165.2122 C.3     1  UNL1        0.1100
     17 S         139.8326  140.3798  169.1076 S.O2    1  UNL1        0.0458
     18 C         139.9677  140.5831  170.5876 C.3     1  UNL1        0.1960
     19 O         138.5482  139.6367  169.3269 O.2     1  UNL1       -0.1572
     20 O         141.1170  141.1228  168.8883 O.2     1  UNL1       -0.1572
     21 C         138.0350  142.6452  157.5583 C.2     1  UNL1        0.2635
     22 N         136.7847  142.6248  156.7297 N.am    1  UNL1       -0.3240
     23 O         138.9560  143.8275  157.4972 O.2     1  UNL1       -0.2686
     24 H         136.1801  141.8489  156.7699 H       1  UNL1        0.1453
     25 H         136.5687  143.3874  156.1457 H       1  UNL1        0.1453
     26 C         141.1891  136.9106  164.0757 C.3     1  UNL1        0.2525
     27 O         139.8154  137.0390  163.4871 O.3     1  UNL1       -0.4701
     28 N         138.3051  143.0519  160.5183 N.pl3   1  UNL1       -0.3094
     29 H         137.4668  143.5427  160.3584 H       1  UNL1        0.1523
     30 C         139.3885  143.6694  161.3521 C.ar    1  UNL1        0.0761
     31 C         140.8114  143.6344  160.8786 C.ar    1  UNL1        0.0166
     32 C         141.8947  144.2519  161.7123 C.ar    1  UNL1       -0.0028
     33 C         141.5551  144.9044  163.0196 C.ar    1  UNL1       -0.0195
     34 C         142.6384  145.5219  163.8533 C.3     1  UNL1        0.0311
     35 C         140.1323  144.9395  163.4931 C.ar    1  UNL1        0.0267
     36 C         139.0489  144.3219  162.6593 C.ar    1  UNL1        0.1531
     37 F         137.6260  144.3570  163.1328 F       1  UNL1       -0.2029
@<TRIPOS>BOND
     1    26    27    1
     2    27     1    1
     3     1     2   ar
     4     2     3   ar
     5     3     4   ar
     6     4     5   ar
     7     5     6   ar
     8     6    21    1
     9    21    22   am
    10    21    23    2
    11     6     7   ar
    12     7    28    1
    13    28    30    1
    14    30    31   ar
    15    31    32   ar
    16    32    33   ar
    17    33    34    1
    18    33    35   ar
    19    35    36   ar
    20    36    37    1
    21     7     8   ar
    22     8     9   ar
    23     9    10   ar
    24    10    11    1
    25    11    12    1
    26    12    13    1
    27    13    14    1
    28    14    17    1
    29    17    18    1
    30    17    19    2
    31    17    20    2
    32    14    15    1
    33    15    16    1
    34    10     1   ar
    35    16    11    1
    36     8     3   ar
    37    36    30   ar
    38    22    24    1
    39    22    25    1
    40    28    29    1
@<TRIPOS>MOLECULE
*****
 37 40 0 0 0
SMALL
GASTEIGER

@<TRIPOS>ATOM
      1 C         138.6547  140.8084  162.4318 C.ar    1  UNL1        0.1534
      2 C         138.1664  141.2346  161.0790 C.ar    1  UNL1        0.0591
      3 C         138.8531  142.3523  160.3516 C.ar    1  UNL1        0.1072
      4 N         138.3647  142.7784  158.9988 N.ar    1  UNL1       -0.1477
      5 N         139.0514  143.8962  158.2714 N.ar    1  UNL1       -0.1421
      6 C         140.2264  144.5878  158.8968 C.ar    1  UNL1        0.1690
      7 C         140.7147  144.1616  160.2495 C.ar    1  UNL1        0.0740
      8 C         140.0281  143.0439  160.9769 C.ar    1  UNL1        0.0359
      9 C         140.5164  142.6177  162.3296 C.ar    1  UNL1        0.0204
     10 C         139.8297  141.5000  163.0571 C.ar    1  UNL1        0.0825
     11 N         140.3181  141.0739  164.4098 N.pl3   1  UNL1       -0.3022
     12 C         141.5508  140.2276  164.5299 C.3     1  UNL1        0.1100
     13 C         142.0392  139.8015  165.8826 C.3     1  UNL1        0.1168
     14 N         141.2949  140.2216  167.1153 N.3     1  UNL1       -0.1559
     15 C         140.0623  141.0679  166.9953 C.3     1  UNL1        0.1168
     16 C         139.5739  141.4940  165.6425 C.3     1  UNL1        0.1100
     17 S         141.7833  139.7955  168.4680 S.O2    1  UNL1        0.0458
     18 C         142.2717  139.3694  169.8207 C.3     1  UNL1        0.1960
     19 O         140.5365  140.3483  169.0924 O.2     1  UNL1       -0.1572
     20 O         143.0301  139.2426  167.8437 O.2     1  UNL1       -0.1572
     21 C         140.9131  145.7055  158.1693 C.2     1  UNL1        0.2635
     22 N         140.1157  146.6456  157.3146 N.am    1  UNL1       -0.3240
     23 O         142.3971  145.8831  158.2966 O.2     1  UNL1       -0.2686
     24 H         139.1417  146.5290  157.2311 H       1  UNL1        0.1453
     25 H         140.5664  147.3792  156.8372 H       1  UNL1        0.1453
     26 C         138.4966  138.2909  163.0539 C.3     1  UNL1        0.2525
     27 O         137.9681  139.6907  163.1592 O.3     1  UNL1       -0.4701
     28 N         141.8897  144.8532  160.8748 N.pl3   1  UNL1       -0.3094
     29 H         141.9800  145.8311  160.8045 H       1  UNL1        0.1523
     30 C         142.9273  144.0550  161.6071 C.ar    1  UNL1        0.0761
     31 C         143.6767  142.9674  160.8961 C.ar    1  UNL1        0.0166
     32 C         144.7143  142.1691  161.6284 C.ar    1  UNL1       -0.0028
     33 C         145.0025  142.4585  163.0718 C.ar    1  UNL1       -0.0195
     34 C         146.0400  141.6602  163.8041 C.3     1  UNL1        0.0311
     35 C         144.2531  143.5460  163.7828 C.ar    1  UNL1        0.0267
     36 C         143.2155  144.3443  163.0504 C.ar    1  UNL1        0.1531
     37 F         142.4661  145.4319  163.7615 F       1  UNL1       -0.2029
@<TRIPOS>BOND
     1    26    27    1
     2    27     1    1
     3     1     2   ar
     4     2     3   ar
     5     3     4   ar
     6     4     5   ar
     7     5     6   ar
     8     6    21    1
     9    21    22   am
    10    21    23    2
    11     6     7   ar
    12     7    28    1
    13    28    30    1
    14    30    31   ar
    15    31    32   ar
    16    32    33   ar
    17    33    34    1
    18    33    35   ar
    19    35    36   ar
    20    36    37    1
    21     7     8   ar
    22     8     9   ar
    23     9    10   ar
    24    10    11    1
    25    11    12    1
    26    12    13    1
    27    13    14    1
    28    14    17    1
    29    17    18    1
    30    17    19    2
    31    17    20    2
    32    14    15    1
    33    15    16    1
    34    10     1   ar
    35    16    11    1
    36     8     3   ar
    37    36    30   ar
    38    22    24    1
    39    22    25    1
    40    28    29    1
@<TRIPOS>MOLECULE
*****
 37 40 0 0 0
SMALL
GASTEIGER

@<TRIPOS>ATOM
      1 C         143.8131  142.0486  164.4398 C.ar    1  UNL1        0.1534
      2 C         143.7820  142.5417  165.8560 C.ar    1  UNL1        0.0591
      3 C         142.8023  141.9600  166.8315 C.ar    1  UNL1        0.1072
      4 N         142.7713  142.4532  168.2478 N.ar    1  UNL1       -0.1477
      5 N         141.7916  141.8714  169.2233 N.ar    1  UNL1       -0.1421
      6 C         140.8428  140.7964  168.7825 C.ar    1  UNL1        0.1690
      7 C         140.8738  140.3032  167.3663 C.ar    1  UNL1        0.0740
      8 C         141.8536  140.8850  166.3908 C.ar    1  UNL1        0.0359
      9 C         141.8846  140.3918  164.9746 C.ar    1  UNL1        0.0204
     10 C         142.8643  140.9736  163.9991 C.ar    1  UNL1        0.0825
     11 N         142.8953  140.4803  162.5828 N.pl3   1  UNL1       -0.3022
     12 C         143.9857  139.5524  162.1354 C.3     1  UNL1        0.1100
     13 C         144.0167  139.0592  160.7192 C.3     1  UNL1        0.1168
     14 N         142.9573  139.4938  159.7503 N.3     1  UNL1       -0.1559
     15 C         141.8669  140.4217  160.1976 C.3     1  UNL1        0.1168
     16 C         141.8359  140.9150  161.6139 C.3     1  UNL1        0.1100
     17 S         142.9883  139.0006  158.3340 S.O2    1  UNL1        0.0458
     18 C         143.0193  138.5073  156.9178 C.3     1  UNL1        0.1960
     19 O         141.7680  138.1689  158.5970 O.2     1  UNL1       -0.1572
     20 O         144.2086  139.8323  158.0711 O.2     1  UNL1       -0.1572
     21 C         139.8630  140.2146  169.7580 C.2     1  UNL1        0.2635
     22 N         140.2353  140.0801  171.2049 N.am    1  UNL1       -0.3240
     23 O         138.5111  139.7674  169.2867 O.2     1  UNL1       -0.2686
     24 H         141.1227  140.3736  171.5143 H       1  UNL1        0.1453
     25 H         139.5923  139.6982  171.8452 H       1  UNL1        0.1453
     26 C         144.3735  143.7487  162.5569 C.3     1  UNL1        0.2525
     27 O         144.7928  142.6303  163.4643 O.3     1  UNL1       -0.4701
     28 N         139.9251  139.2282  166.9256 N.pl3   1  UNL1       -0.3094
     29 H         139.6962  138.4922  167.5381 H       1  UNL1        0.1523
     30 C         139.3250  139.2746  165.5516 C.ar    1  UNL1        0.0761
     31 C         138.4702  140.4384  165.1455 C.ar    1  UNL1        0.0166
     32 C         137.8700  140.4848  163.7716 C.ar    1  UNL1       -0.0028
     33 C         138.1247  139.3674  162.8037 C.ar    1  UNL1       -0.0195
     34 C         137.5246  139.4139  161.4298 C.3     1  UNL1        0.0311
     35 C         138.9795  138.2037  163.2098 C.ar    1  UNL1        0.0267
     36 C         139.5796  138.1573  164.5838 C.ar    1  UNL1        0.1531
     37 F         140.4344  136.9935  164.9900 F       1  UNL1       -0.2029
@<TRIPOS>BOND
     1    26    27    1
     2    27     1    1
     3     1     2   ar
     4     2     3   ar
     5     3     4   ar
     6     4     5   ar
     7     5     6   ar
     8     6    21    1
     9    21    22   am
    10    21    23    2
    11     6     7   ar
    12     7    28    1
    13    28    30    1
    14    30    31   ar
    15    31    32   ar
    16    32    33   ar
    17    33    34    1
    18    33    35   ar
    19    35    36   ar
    20    36    37    1
    21     7     8   ar
    22     8     9   ar
    23     9    10   ar
    24    10    11    1
    25    11    12    1
    26    12    13    1
    27    13    14    1
    28    14    17    1
    29    17    18    1
    30    17    19    2
    31    17    20    2
    32    14    15    1
    33    15    16    1
    34    10     1   ar
    35    16    11    1
    36     8     3   ar
    37    36    30   ar
    38    22    24    1
    39    22    25    1
    40    28    29    1
@<TRIPOS>MOLECULE
*****
 37 40 0 0 0
SMALL
GASTEIGER

@<TRIPOS>ATOM
      1 C         137.9747  140.6631  162.1343 C.ar    1  UNL1        0.1534
      2 C         137.8038  140.5245  160.6506 C.ar    1  UNL1        0.0591
      3 C         138.8478  139.8173  159.8382 C.ar    1  UNL1        0.1072
      4 N         138.6768  139.6788  158.3543 N.ar    1  UNL1       -0.1477
      5 N         139.7208  138.9716  157.5419 N.ar    1  UNL1       -0.1421
      6 C         140.9357  138.4030  158.2133 C.ar    1  UNL1        0.1690
      7 C         141.1066  138.5415  159.6971 C.ar    1  UNL1        0.0740
      8 C         140.0627  139.2487  160.5095 C.ar    1  UNL1        0.0359
      9 C         140.2336  139.3873  161.9932 C.ar    1  UNL1        0.0204
     10 C         139.1896  140.0945  162.8057 C.ar    1  UNL1        0.0825
     11 N         139.3605  140.2330  164.2895 N.pl3   1  UNL1       -0.3022
     12 C         140.2753  141.2845  164.8441 C.3     1  UNL1        0.1100
     13 C         140.4463  141.4231  166.3278 C.3     1  UNL1        0.1168
     14 N         139.7025  140.5102  167.2570 N.3     1  UNL1       -0.1559
     15 C         138.7877  139.4587  166.7024 C.3     1  UNL1        0.1168
     16 C         138.6168  139.3201  165.2186 C.3     1  UNL1        0.1100
     17 S         139.8734  140.6488  168.7408 S.O2    1  UNL1        0.0458
     18 C         140.0444  140.7873  170.2245 C.3     1  UNL1        0.1960
     19 O         138.8063  139.6177  168.9600 O.2     1  UNL1       -0.1572
     20 O         140.9406  141.6798  168.5215 O.2     1  UNL1       -0.1572
     21 C         141.9797  137.6958  157.4009 C.2     1  UNL1        0.2635
     22 N         141.5948  136.5357  156.5314 N.am    1  UNL1       -0.3240
     23 O         143.4085  138.1487  157.4580 O.2     1  UNL1       -0.2686
     24 H         140.6570  136.2384  156.4939 H       1  UNL1        0.1453
     25 H         142.2800  136.0715  155.9982 H       1  UNL1        0.1453
     26 C         137.2147  142.7300  163.5128 C.3     1  UNL1        0.2525
     27 O         136.9307  141.3702  162.9468 O.3     1  UNL1       -0.4701
     28 N         142.3215  137.9729  160.3684 N.pl3   1  UNL1       -0.3094
     29 H         142.5568  137.0256  160.2401 H       1  UNL1        0.1523
     30 C         143.1780  138.8477  161.2352 C.ar    1  UNL1        0.0761
     31 C         143.5510  138.3992  162.6171 C.ar    1  UNL1        0.0166
     32 C         144.4074  139.2739  163.4839 C.ar    1  UNL1       -0.0028
     33 C         144.8909  140.5972  162.9689 C.ar    1  UNL1       -0.0195
     34 C         145.7473  141.4719  163.8357 C.3     1  UNL1        0.0311
     35 C         144.5178  141.0457  161.5870 C.ar    1  UNL1        0.0267
     36 C         143.6613  140.1709  160.7201 C.ar    1  UNL1        0.1531
     37 F         143.2883  140.6195  159.3382 F       1  UNL1       -0.2029
@<TRIPOS>BOND
     1    26    27    1
     2    27     1    1
     3     1     2   ar
     4     2     3   ar
     5     3     4   ar
     6     4     5   ar
     7     5     6   ar
     8     6    21    1
     9    21    22   am
    10    21    23    2
    11     6     7   ar
    12     7    28    1
    13    28    30    1
    14    30    31   ar
    15    31    32   ar
    16    32    33   ar
    17    33    34    1
    18    33    35   ar
    19    35    36   ar
    20    36    37    1
    21     7     8   ar
    22     8     9   ar
    23     9    10   ar
    24    10    11    1
    25    11    12    1
    26    12    13    1
    27    13    14    1
    28    14    17    1
    29    17    18    1
    30    17    19    2
    31    17    20    2
    32    14    15    1
    33    15    16    1
    34    10     1   ar
    35    16    11    1
    36     8     3   ar
    37    36    30   ar
    38    22    24    1
    39    22    25    1
    40    28    29    1
@<TRIPOS>MOLECULE
*****
 37 40 0 0 0
SMALL
GASTEIGER

@<TRIPOS>ATOM
      1 C         144.1844  139.8160  162.9677 C.ar    1  UNL1        0.1534
      2 C         144.3749  139.5436  161.5050 C.ar    1  UNL1        0.0591
      3 C         143.1845  139.2934  160.6274 C.ar    1  UNL1        0.1072
      4 N         143.3751  139.0210  159.1646 N.ar    1  UNL1       -0.1477
      5 N         142.1847  138.7707  158.2870 N.ar    1  UNL1       -0.1421
      6 C         140.8036  138.7928  158.8721 C.ar    1  UNL1        0.1690
      7 C         140.6131  139.0652  160.3347 C.ar    1  UNL1        0.0740
      8 C         141.8035  139.3155  161.2124 C.ar    1  UNL1        0.0359
      9 C         141.6129  139.5878  162.6751 C.ar    1  UNL1        0.0204
     10 C         142.8034  139.8381  163.5527 C.ar    1  UNL1        0.0825
     11 N         142.6127  140.1105  165.0154 N.pl3   1  UNL1       -0.3022
     12 C         142.1391  141.4586  165.4718 C.3     1  UNL1        0.1100
     13 C         141.9484  141.7310  166.9344 C.3     1  UNL1        0.1168
     14 N         142.2315  140.6552  167.9408 N.3     1  UNL1       -0.1559
     15 C         142.7052  139.3071  167.4845 C.3     1  UNL1        0.1168
     16 C         142.8958  139.0348  166.0218 C.3     1  UNL1        0.1100
     17 S         142.0408  140.9276  169.4035 S.O2    1  UNL1        0.0458
     18 C         141.8502  141.2000  170.8662 C.3     1  UNL1        0.1960
     19 O         140.9685  141.9246  169.0781 O.2     1  UNL1       -0.1572
     20 O         143.1132  139.9306  169.7289 O.2     1  UNL1       -0.1572
     21 C         139.6132  138.5426  157.9944 C.2     1  UNL1        0.2635
     22 N         139.5664  137.3216  157.1243 N.am    1  UNL1       -0.3240
     23 O         138.4697  139.5132  157.9869 O.2     1  UNL1       -0.2686
     24 H         140.3170  136.6846  157.1292 H       1  UNL1        0.1453
     25 H         138.7851  137.1574  156.5482 H       1  UNL1        0.1453
     26 C         145.9554  141.4456  163.9463 C.3     1  UNL1        0.2525
     27 O         145.3748  140.0662  163.8453 O.3     1  UNL1       -0.4701
     28 N         139.2321  139.0873  160.9198 N.pl3   1  UNL1       -0.3094
     29 H         138.6477  138.2999  160.8321 H       1  UNL1        0.1523
     30 C         138.7414  140.3092  161.6385 C.ar    1  UNL1        0.0761
     31 C         138.7484  141.6399  160.9462 C.ar    1  UNL1        0.0166
     32 C         138.2578  142.8617  161.6648 C.ar    1  UNL1       -0.0028
     33 C         137.7602  142.7528  163.0758 C.ar    1  UNL1       -0.0195
     34 C         137.2696  143.9746  163.7944 C.3     1  UNL1        0.0311
     35 C         137.7533  141.4221  163.7680 C.ar    1  UNL1        0.0267
     36 C         138.2439  140.2003  163.0493 C.ar    1  UNL1        0.1531
     37 F         138.2369  138.8696  163.7415 F       1  UNL1       -0.2029
@<TRIPOS>BOND
     1    26    27    1
     2    27     1    1
     3     1     2   ar
     4     2     3   ar
     5     3     4   ar
     6     4     5   ar
     7     5     6   ar
     8     6    21    1
     9    21    22   am
    10    21    23    2
    11     6     7   ar
    12     7    28    1
    13    28    30    1
    14    30    31   ar
    15    31    32   ar
    16    32    33   ar
    17    33    34    1
    18    33    35   ar
    19    35    36   ar
    20    36    37    1
    21     7     8   ar
    22     8     9   ar
    23     9    10   ar
    24    10    11    1
    25    11    12    1
    26    12    13    1
    27    13    14    1
    28    14    17    1
    29    17    18    1
    30    17    19    2
    31    17    20    2
    32    14    15    1
    33    15    16    1
    34    10     1   ar
    35    16    11    1
    36     8     3   ar
    37    36    30   ar
    38    22    24    1
    39    22    25    1
    40    28    29    1
@<TRIPOS>MOLECULE
*****
 37 40 0 0 0
SMALL
GASTEIGER

@<TRIPOS>ATOM
      1 C         139.3210  143.4897  164.1158 C.ar    1  UNL1        0.1534
      2 C         139.5838  143.8377  165.5510 C.ar    1  UNL1        0.0591
      3 C         140.1088  142.7940  166.4918 C.ar    1  UNL1        0.1072
      4 N         140.3716  143.1421  167.9271 N.ar    1  UNL1       -0.1477
      5 N         140.8966  142.0984  168.8679 N.ar    1  UNL1       -0.1421
      6 C         141.1588  140.7067  168.3735 C.ar    1  UNL1        0.1690
      7 C         140.8960  140.3587  166.9383 C.ar    1  UNL1        0.0740
      8 C         140.3710  141.4024  165.9975 C.ar    1  UNL1        0.0359
      9 C         140.1082  141.0544  164.5623 C.ar    1  UNL1        0.0204
     10 C         139.5832  142.0980  163.6215 C.ar    1  UNL1        0.0825
     11 N         139.3204  141.7499  162.1862 N.pl3   1  UNL1       -0.3022
     12 C         138.0690  141.0135  161.8101 C.3     1  UNL1        0.1100
     13 C         137.8061  140.6654  160.3750 C.3     1  UNL1        0.1168
     14 N         138.7948  141.0538  159.3158 N.3     1  UNL1       -0.1559
     15 C         140.0463  141.7902  159.6919 C.3     1  UNL1        0.1168
     16 C         140.3091  142.1383  161.1272 C.3     1  UNL1        0.1100
     17 S         138.5320  140.7057  157.8807 S.O2    1  UNL1        0.0458
     18 C         138.2692  140.3576  156.4455 C.3     1  UNL1        0.1960
     19 O         137.1803  140.1754  158.2568 O.2     1  UNL1       -0.1572
     20 O         139.8837  141.2361  157.5045 O.2     1  UNL1       -0.1572
     21 C         141.6838  139.6630  169.3143 C.2     1  UNL1        0.2635
     22 N         140.9352  139.3447  170.5746 N.am    1  UNL1       -0.3240
     23 O         142.9573  138.9377  168.9948 O.2     1  UNL1       -0.2686
     24 H         140.0994  139.8207  170.7843 H       1  UNL1        0.1453
     25 H         141.2798  138.6597  171.1921 H       1  UNL1        0.1453
     26 C         139.7430  145.4865  162.5082 C.3     1  UNL1        0.2525
     27 O         138.7960  144.5334  163.1750 O.3     1  UNL1       -0.4701
     28 N         141.1582  138.9670  166.4439 N.pl3   1  UNL1       -0.3094
     29 H         140.8568  138.1923  166.9714 H       1  UNL1        0.1523
     30 C         141.8797  138.7557  165.1459 C.ar    1  UNL1        0.0761
     31 C         143.2404  139.3517  164.9384 C.ar    1  UNL1        0.0166
     32 C         143.9619  139.1404  163.6405 C.ar    1  UNL1       -0.0028
     33 C         143.3226  138.3330  162.5498 C.ar    1  UNL1       -0.0195
     34 C         144.0441  138.1216  161.2519 C.3     1  UNL1        0.0311
     35 C         141.9619  137.7369  162.7573 C.ar    1  UNL1        0.0267
     36 C         141.2404  137.9482  164.0553 C.ar    1  UNL1        0.1531
     37 F         139.8796  137.3521  164.2627 F       1  UNL1       -0.2029
@<TRIPOS>BOND
     1    26    27    1
     2    27     1    1
     3     1     2   ar
     4     2     3   ar
     5     3     4   ar
     6     4     5   ar
     7     5     6   ar
     8     6    21    1
     9    21    22   am
    10    21    23    2
    11     6     7   ar
    12     7    28    1
    13    28    30    1
    14    30    31   ar
    15    31    32   ar
    16    32    33   ar
    17    33    34    1
    18    33    35   ar
    19    35    36   ar
    20    36    37    1
    21     7     8   ar
    22     8     9   ar
    23     9    10   ar
    24    10    11    1
    25    11    12    1
    26    12    13    1
    27    13    14    1
    28    14    17    1
    29    17    18    1
    30    17    19    2
    31    17    20    2
    32    14    15    1
    33    15    16    1
    34    10     1   ar
    35    16    11    1
    36     8     3   ar
    37    36    30   ar
    38    22    24    1
    39    22    25    1
    40    28    29    1
@<TRIPOS>MOLECULE
*****
 37 40 0 0 0
SMALL
GASTEIGER

@<TRIPOS>ATOM
      1 C         141.4187  138.2091  163.4944 C.ar    1  UNL1        0.1534
      2 C         141.6959  137.6296  162.1389 C.ar    1  UNL1        0.0591
      3 C         142.3800  138.4600  161.0938 C.ar    1  UNL1        0.1072
      4 N         142.6572  137.8804  159.7383 N.ar    1  UNL1       -0.1477
      5 N         143.3413  138.7108  158.6931 N.ar    1  UNL1       -0.1421
      6 C         143.7483  140.1208  159.0034 C.ar    1  UNL1        0.1690
      7 C         143.4712  140.7004  160.3589 C.ar    1  UNL1        0.0740
      8 C         142.7870  139.8700  161.4040 C.ar    1  UNL1        0.0359
      9 C         142.5099  140.4495  162.7595 C.ar    1  UNL1        0.0204
     10 C         141.8257  139.6191  163.8046 C.ar    1  UNL1        0.0825
     11 N         141.5486  140.1988  165.1601 N.pl3   1  UNL1       -0.3022
     12 C         140.3293  141.0445  165.3791 C.3     1  UNL1        0.1100
     13 C         140.0521  141.6242  166.7345 C.3     1  UNL1        0.1168
     14 N         140.9942  141.3580  167.8710 N.3     1  UNL1       -0.1559
     15 C         142.2135  140.5122  167.6521 C.3     1  UNL1        0.1168
     16 C         142.4907  139.9326  166.2966 C.3     1  UNL1        0.1100
     17 S         140.7170  141.9376  169.2264 S.O2    1  UNL1        0.0458
     18 C         140.4398  142.5173  170.5818 C.3     1  UNL1        0.1960
     19 O         140.4152  143.2653  168.5970 O.2     1  UNL1       -0.1572
     20 O         141.0188  140.6100  169.8559 O.2     1  UNL1       -0.1572
     21 C         144.4325  140.9512  157.9583 C.2     1  UNL1        0.2635
     22 N         145.3533  140.3014  156.9683 N.am    1  UNL1       -0.3240
     23 O         144.1959  142.4314  157.9030 O.2     1  UNL1       -0.2686
     24 H         145.5086  139.3299  157.0046 H       1  UNL1        0.1453
     25 H         145.8023  140.8464  156.2823 H       1  UNL1        0.1453
     26 C         139.2562  137.5130  164.7549 C.3     1  UNL1        0.2525
     27 O         140.7346  137.3787  164.5395 O.3     1  UNL1       -0.4701
     28 N         143.8781  142.1103  160.6691 N.pl3   1  UNL1       -0.3094
     29 H         144.8313  142.3568  160.6787 H       1  UNL1        0.1523
     30 C         142.8329  143.1449  160.9648 C.ar    1  UNL1        0.0761
     31 C         141.6411  143.2854  160.0649 C.ar    1  UNL1        0.0166
     32 C         140.5959  144.3198  160.3605 C.ar    1  UNL1       -0.0028
     33 C         140.7426  145.2139  161.5561 C.ar    1  UNL1       -0.0195
     34 C         139.6974  146.2484  161.8517 C.3     1  UNL1        0.0311
     35 C         141.9344  145.0734  162.4559 C.ar    1  UNL1        0.0267
     36 C         142.9796  144.0389  162.1603 C.ar    1  UNL1        0.1531
     37 F         144.1715  143.8984  163.0602 F       1  UNL1       -0.2029
@<TRIPOS>BOND
     1    26    27    1
     2    27     1    1
     3     1     2   ar
     4     2     3   ar
     5     3     4   ar
     6     4     5   ar
     7     5     6   ar
     8     6    21    1
     9    21    22   am
    10    21    23    2
    11     6     7   ar
    12     7    28    1
    13    28    30    1
    14    30    31   ar
    15    31    32   ar
    16    32    33   ar
    17    33    34    1
    18    33    35   ar
    19    35    36   ar
    20    36    37    1
    21     7     8   ar
    22     8     9   ar
    23     9    10   ar
    24    10    11    1
    25    11    12    1
    26    12    13    1
    27    13    14    1
    28    14    17    1
    29    17    18    1
    30    17    19    2
    31    17    20    2
    32    14    15    1
    33    15    16    1
    34    10     1   ar
    35    16    11    1
    36     8     3   ar
    37    36    30   ar
    38    22    24    1
    39    22    25    1
    40    28    29    1
