@<TRIPOS>MOLECULE
*****
 33 37 0 0 0
SMALL
GASTEIGER

@<TRIPOS>ATOM
      1 O         139.6998  139.5403  170.3184 O.2     1  UNL1       -0.2866
      2 C         140.2790  140.1541  169.0783 C.2     1  UNL1        0.1950
      3 C         139.6233  139.9210  167.7495 C.ar    1  UNL1        0.0353
      4 C         138.3883  139.0743  167.6608 C.ar    1  UNL1        0.0029
      5 C         137.7326  138.8413  166.3320 C.ar    1  UNL1        0.0001
      6 C         138.3119  139.4550  165.0919 C.ar    1  UNL1       -0.0003
      7 C         139.5468  140.3018  165.1806 C.ar    1  UNL1       -0.0039
      8 C         140.2025  140.5348  166.5094 C.ar    1  UNL1       -0.0153
      9 C         141.4375  141.3815  166.5982 C.3     1  UNL1        0.0463
     10 C         142.0932  141.6146  167.9270 C.ar    1  UNL1       -0.0153
     11 C         143.3282  142.4613  168.0157 C.ar    1  UNL1       -0.0039
     12 C         143.9839  142.6943  169.3445 C.ar    1  UNL1       -0.0003
     13 C         143.4046  142.0806  170.5846 C.ar    1  UNL1        0.0001
     14 C         142.1697  141.2339  170.4959 C.ar    1  UNL1        0.0029
     15 C         141.5139  141.0008  169.1671 C.ar    1  UNL1        0.0353
     16 C         141.1796  141.4510  165.1221 C.3     1  UNL1        0.0394
     17 C         140.6160  142.7026  164.5173 C.ar    1  UNL1        0.0364
     18 C         139.8633  143.6767  165.3744 C.ar    1  UNL1        0.1574
     19 F         139.6741  143.3991  166.8363 F       1  UNL1       -0.2028
     20 C         139.2997  144.9282  164.7694 C.ar    1  UNL1        0.1282
     21 N         139.4889  145.2058  163.3075 N.ar    1  UNL1       -0.2376
     22 C         140.2416  144.2317  162.4505 C.ar    1  UNL1        0.1282
     23 C         140.8052  142.9801  163.0554 C.ar    1  UNL1        0.1574
     24 F         141.5579  142.0060  162.1983 F       1  UNL1       -0.2028
     25 C         142.5829  142.2524  166.1743 C.3     1  UNL1        0.0394
     26 C         143.5796  141.7464  165.1740 C.ar    1  UNL1        0.0364
     27 C         144.1977  142.6918  164.1869 C.ar    1  UNL1        0.1574
     28 F         143.8190  144.1431  164.2002 F       1  UNL1       -0.2028
     29 C         145.1944  142.1858  163.1867 C.ar    1  UNL1        0.1282
     30 N         145.5731  140.7344  163.1735 N.ar    1  UNL1       -0.2376
     31 C         144.9550  139.7891  164.1606 C.ar    1  UNL1        0.1282
     32 C         143.9583  140.2951  165.1608 C.ar    1  UNL1        0.1574
     33 F         143.3402  139.3497  166.1479 F       1  UNL1       -0.2028
@<TRIPOS>BOND
     1     1     2    2
     2     2     3    1
     3     3     4   ar
     4     4     5   ar
     5     5     6   ar
     6     6     7   ar
     7     7     8   ar
     8     8     9    1
     9     9    16    1
    10    16    17    1
    11    17    18   ar
    12    18    19    1
    13    18    20   ar
    14    20    21   ar
    15    21    22   ar
    16    22    23   ar
    17    23    24    1
    18     9    25    1
    19    25    26    1
    20    26    27   ar
    21    27    28    1
    22    27    29   ar
    23    29    30   ar
    24    30    31   ar
    25    31    32   ar
    26    32    33    1
    27     9    10    1
    28    10    11   ar
    29    11    12   ar
    30    12    13   ar
    31    13    14   ar
    32    14    15   ar
    33    15     2    1
    34     8     3   ar
    35    23    17   ar
    36    32    26   ar
    37    15    10   ar
@<TRIPOS>MOLECULE
*****
 33 37 0 0 0
SMALL
GASTEIGER

@<TRIPOS>ATOM
      1 O         139.6996  139.5622  170.3347 O.2     1  UNL1       -0.2866
      2 C         140.2750  140.1676  169.0888 C.2     1  UNL1        0.1950
      3 C         141.5079  141.0184  169.1688 C.ar    1  UNL1        0.0353
      4 C         142.1652  141.2637  170.4945 C.ar    1  UNL1        0.0029
      5 C         143.3980  142.1145  170.5744 C.ar    1  UNL1        0.0001
      6 C         143.9734  142.7199  169.3285 C.ar    1  UNL1       -0.0003
      7 C         143.3161  142.4746  168.0027 C.ar    1  UNL1       -0.0039
      8 C         142.0833  141.6239  167.9228 C.ar    1  UNL1       -0.0153
      9 C         141.4260  141.3785  166.5970 C.3     1  UNL1        0.0463
     10 C         140.1932  140.5278  166.5172 C.ar    1  UNL1       -0.0153
     11 C         139.5358  140.2824  165.1913 C.ar    1  UNL1       -0.0039
     12 C         138.3030  139.4316  165.1115 C.ar    1  UNL1       -0.0003
     13 C         137.7276  138.8262  166.3574 C.ar    1  UNL1        0.0001
     14 C         138.3849  139.0715  167.6832 C.ar    1  UNL1        0.0029
     15 C         139.6177  139.9223  167.7631 C.ar    1  UNL1        0.0353
     16 C         142.5683  142.2491  166.1643 C.3     1  UNL1        0.0394
     17 C         143.5647  141.7379  165.1664 C.ar    1  UNL1        0.0364
     18 C         144.1792  142.6773  164.1713 C.ar    1  UNL1        0.1574
     19 F         143.7972  144.1278  164.1742 F       1  UNL1       -0.2028
     20 C         145.1756  142.1660  163.1735 C.ar    1  UNL1        0.1282
     21 N         145.5576  140.7154  163.1706 N.ar    1  UNL1       -0.2376
     22 C         144.9431  139.7761  164.1657 C.ar    1  UNL1        0.1282
     23 C         143.9467  140.2874  165.1635 C.ar    1  UNL1        0.1574
     24 F         143.3322  139.3480  166.1586 F       1  UNL1       -0.2028
     25 C         141.1653  141.4355  165.1209 C.3     1  UNL1        0.0394
     26 C         140.6057  142.6839  164.5058 C.ar    1  UNL1        0.0364
     27 C         140.7901  142.9457  163.0404 C.ar    1  UNL1        0.1574
     28 F         141.5340  141.9590  162.1901 F       1  UNL1       -0.2028
     29 C         140.2304  144.1941  162.4253 C.ar    1  UNL1        0.1282
     30 N         139.4865  145.1807  163.2757 N.ar    1  UNL1       -0.2376
     31 C         139.3022  144.9189  164.7411 C.ar    1  UNL1        0.1282
     32 C         139.8618  143.6705  165.3561 C.ar    1  UNL1        0.1574
     33 F         139.6774  143.4088  166.8216 F       1  UNL1       -0.2028
@<TRIPOS>BOND
     1     1     2    2
     2     2     3    1
     3     3     4   ar
     4     4     5   ar
     5     5     6   ar
     6     6     7   ar
     7     7     8   ar
     8     8     9    1
     9     9    16    1
    10    16    17    1
    11    17    18   ar
    12    18    19    1
    13    18    20   ar
    14    20    21   ar
    15    21    22   ar
    16    22    23   ar
    17    23    24    1
    18     9    25    1
    19    25    26    1
    20    26    27   ar
    21    27    28    1
    22    27    29   ar
    23    29    30   ar
    24    30    31   ar
    25    31    32   ar
    26    32    33    1
    27     9    10    1
    28    10    11   ar
    29    11    12   ar
    30    12    13   ar
    31    13    14   ar
    32    14    15   ar
    33    15     2    1
    34     8     3   ar
    35    23    17   ar
    36    32    26   ar
    37    15    10   ar
@<TRIPOS>MOLECULE
*****
 33 37 0 0 0
SMALL
GASTEIGER

@<TRIPOS>ATOM
      1 O         139.6840  139.6126  170.3586 O.2     1  UNL1       -0.2866
      2 C         140.2632  140.2048  169.1080 C.2     1  UNL1        0.1950
      3 C         141.4999  141.0505  169.1816 C.ar    1  UNL1        0.0353
      4 C         142.1574  141.3041  170.5057 C.ar    1  UNL1        0.0029
      5 C         143.3941  142.1498  170.5793 C.ar    1  UNL1        0.0001
      6 C         143.9732  142.7419  169.3287 C.ar    1  UNL1       -0.0003
      7 C         143.3157  142.4883  168.0045 C.ar    1  UNL1       -0.0039
      8 C         142.0791  141.6426  167.9310 C.ar    1  UNL1       -0.0153
      9 C         141.4215  141.3890  166.6068 C.3     1  UNL1        0.0463
     10 C         140.1849  140.5433  166.5333 C.ar    1  UNL1       -0.0153
     11 C         139.5273  140.2897  165.2091 C.ar    1  UNL1       -0.0039
     12 C         138.2906  139.4440  165.1356 C.ar    1  UNL1       -0.0003
     13 C         137.7115  138.8519  166.3862 C.ar    1  UNL1        0.0001
     14 C         138.3690  139.1055  167.7103 C.ar    1  UNL1        0.0029
     15 C         139.6057  139.9512  167.7839 C.ar    1  UNL1        0.0353
     16 C         142.5681  142.2506  166.1675 C.3     1  UNL1        0.0394
     17 C         143.5581  141.7294  165.1684 C.ar    1  UNL1        0.0364
     18 C         143.9127  140.2720  165.1541 C.ar    1  UNL1        0.1574
     19 F         143.2773  139.3358  166.1388 F       1  UNL1       -0.2028
     20 C         144.9028  139.7508  164.1549 C.ar    1  UNL1        0.1282
     21 N         145.5382  140.6870  163.1702 N.ar    1  UNL1       -0.2376
     22 C         145.1836  142.1445  163.1846 C.ar    1  UNL1        0.1282
     23 C         144.1936  142.6656  164.1837 C.ar    1  UNL1        0.1574
     24 F         143.8390  144.1231  164.1981 F       1  UNL1       -0.2028
     25 C         141.1622  141.4347  165.1301 C.3     1  UNL1        0.0394
     26 C         140.6091  142.6804  164.5039 C.ar    1  UNL1        0.0364
     27 C         140.8032  142.9329  163.0381 C.ar    1  UNL1        0.1574
     28 F         141.5504  141.9395  162.1985 F       1  UNL1       -0.2028
     29 C         140.2501  144.1786  162.4119 C.ar    1  UNL1        0.1282
     30 N         139.5029  145.1720  163.2516 N.ar    1  UNL1       -0.2376
     31 C         139.3088  144.9195  164.7173 C.ar    1  UNL1        0.1282
     32 C         139.8619  143.6738  165.3435 C.ar    1  UNL1        0.1574
     33 F         139.6678  143.4213  166.8094 F       1  UNL1       -0.2028
@<TRIPOS>BOND
     1     1     2    2
     2     2     3    1
     3     3     4   ar
     4     4     5   ar
     5     5     6   ar
     6     6     7   ar
     7     7     8   ar
     8     8     9    1
     9     9    16    1
    10    16    17    1
    11    17    18   ar
    12    18    19    1
    13    18    20   ar
    14    20    21   ar
    15    21    22   ar
    16    22    23   ar
    17    23    24    1
    18     9    25    1
    19    25    26    1
    20    26    27   ar
    21    27    28    1
    22    27    29   ar
    23    29    30   ar
    24    30    31   ar
    25    31    32   ar
    26    32    33    1
    27     9    10    1
    28    10    11   ar
    29    11    12   ar
    30    12    13   ar
    31    13    14   ar
    32    14    15   ar
    33    15     2    1
    34     8     3   ar
    35    23    17   ar
    36    32    26   ar
    37    15    10   ar
@<TRIPOS>MOLECULE
*****
 33 37 0 0 0
SMALL
GASTEIGER

@<TRIPOS>ATOM
      1 O         139.6866  139.6159  170.3660 O.2     1  UNL1       -0.2866
      2 C         140.2649  140.2069  169.1145 C.2     1  UNL1        0.1950
      3 C         139.6054  139.9537  167.7912 C.ar    1  UNL1        0.0353
      4 C         138.3676  139.1095  167.7195 C.ar    1  UNL1        0.0029
      5 C         137.7081  138.8563  166.3963 C.ar    1  UNL1        0.0001
      6 C         138.2865  139.4473  165.1448 C.ar    1  UNL1       -0.0003
      7 C         139.5242  140.2915  165.2165 C.ar    1  UNL1       -0.0039
      8 C         140.1837  140.5447  166.5397 C.ar    1  UNL1       -0.0153
      9 C         141.4215  141.3889  166.6114 C.3     1  UNL1        0.0463
     10 C         142.0810  141.6421  167.9347 C.ar    1  UNL1       -0.0153
     11 C         143.3188  142.4864  168.0064 C.ar    1  UNL1       -0.0039
     12 C         143.9783  142.7396  169.3296 C.ar    1  UNL1       -0.0003
     13 C         143.4000  142.1486  170.5812 C.ar    1  UNL1        0.0001
     14 C         142.1622  141.3044  170.5094 C.ar    1  UNL1        0.0029
     15 C         141.5027  141.0512  169.1862 C.ar    1  UNL1        0.0353
     16 C         141.1604  141.4344  165.1350 C.3     1  UNL1        0.0394
     17 C         140.6042  142.6792  164.5097 C.ar    1  UNL1        0.0364
     18 C         139.8522  143.6688  165.3495 C.ar    1  UNL1        0.1574
     19 F         139.6565  143.4136  166.8146 F       1  UNL1       -0.2028
     20 C         139.2961  144.9136  164.7241 C.ar    1  UNL1        0.1282
     21 N         139.4918  145.1688  163.2590 N.ar    1  UNL1       -0.2376
     22 C         140.2438  144.1792  162.4192 C.ar    1  UNL1        0.1282
     23 C         140.8000  142.9344  163.0446 C.ar    1  UNL1        0.1574
     24 F         141.5520  141.9448  162.2048 F       1  UNL1       -0.2028
     25 C         142.5687  142.2490  166.1704 C.3     1  UNL1        0.0394
     26 C         143.5579  141.7255  165.1717 C.ar    1  UNL1        0.0364
     27 C         143.9089  140.2671  165.1573 C.ar    1  UNL1        0.1574
     28 F         143.2706  139.3325  166.1417 F       1  UNL1       -0.2028
     29 C         144.8980  139.7436  164.1586 C.ar    1  UNL1        0.1282
     30 N         145.5362  140.6784  163.1743 N.ar    1  UNL1       -0.2376
     31 C         145.1852  142.1367  163.1886 C.ar    1  UNL1        0.1282
     32 C         144.1960  142.6602  164.1874 C.ar    1  UNL1        0.1574
     33 F         143.8450  144.1185  164.2017 F       1  UNL1       -0.2028
@<TRIPOS>BOND
     1     1     2    2
     2     2     3    1
     3     3     4   ar
     4     4     5   ar
     5     5     6   ar
     6     6     7   ar
     7     7     8   ar
     8     8     9    1
     9     9    16    1
    10    16    17    1
    11    17    18   ar
    12    18    19    1
    13    18    20   ar
    14    20    21   ar
    15    21    22   ar
    16    22    23   ar
    17    23    24    1
    18     9    25    1
    19    25    26    1
    20    26    27   ar
    21    27    28    1
    22    27    29   ar
    23    29    30   ar
    24    30    31   ar
    25    31    32   ar
    26    32    33    1
    27     9    10    1
    28    10    11   ar
    29    11    12   ar
    30    12    13   ar
    31    13    14   ar
    32    14    15   ar
    33    15     2    1
    34     8     3   ar
    35    23    17   ar
    36    32    26   ar
    37    15    10   ar
@<TRIPOS>MOLECULE
*****
 33 37 0 0 0
SMALL
GASTEIGER

@<TRIPOS>ATOM
      1 O         143.8729  142.6297  169.0834 O.2     1  UNL1       -0.2866
      2 C         142.9517  142.2369  167.9667 C.2     1  UNL1        0.1950
      3 C         143.2727  142.6316  166.5555 C.ar    1  UNL1        0.0353
      4 C         144.5150  143.4191  166.2612 C.ar    1  UNL1        0.0029
      5 C         144.8360  143.8137  164.8502 C.ar    1  UNL1        0.0001
      6 C         143.9148  143.4209  163.7334 C.ar    1  UNL1       -0.0003
      7 C         142.6725  142.6335  164.0278 C.ar    1  UNL1       -0.0039
      8 C         142.3515  142.2388  165.4388 C.ar    1  UNL1       -0.0153
      9 C         141.1092  141.4513  165.7332 C.3     1  UNL1        0.0463
     10 C         140.7882  141.0566  167.1443 C.ar    1  UNL1       -0.0153
     11 C         139.5459  140.2691  167.4387 C.ar    1  UNL1       -0.0039
     12 C         139.2249  139.8744  168.8498 C.ar    1  UNL1       -0.0003
     13 C         140.1461  140.2672  169.9665 C.ar    1  UNL1        0.0001
     14 C         141.3883  141.0547  169.6721 C.ar    1  UNL1        0.0029
     15 C         141.7094  141.4494  168.2610 C.ar    1  UNL1        0.0353
     16 C         140.9837  141.5891  164.2448 C.3     1  UNL1        0.0394
     17 C         139.9490  142.5047  163.6610 C.ar    1  UNL1        0.0364
     18 C         139.4722  142.2975  162.2539 C.ar    1  UNL1        0.1574
     19 F         140.0303  141.1747  161.4307 F       1  UNL1       -0.2028
     20 C         138.4375  143.2132  161.6702 C.ar    1  UNL1        0.1282
     21 N         137.8794  144.3361  162.4934 N.ar    1  UNL1       -0.2376
     22 C         138.3561  144.5433  163.9005 C.ar    1  UNL1        0.1282
     23 C         139.3909  143.6276  164.4843 C.ar    1  UNL1        0.1574
     24 F         139.8676  143.8348  165.8914 F       1  UNL1       -0.2028
     25 C         139.8233  140.7116  165.5107 C.3     1  UNL1        0.0394
     26 C         139.7960  139.5071  164.6172 C.ar    1  UNL1        0.0364
     27 C         138.6154  139.2619  163.7248 C.ar    1  UNL1        0.1574
     28 F         137.4623  140.2213  163.7260 F       1  UNL1       -0.2028
     29 C         138.5880  138.0574  162.8313 C.ar    1  UNL1        0.1282
     30 N         139.7412  137.0981  162.8301 N.ar    1  UNL1       -0.2376
     31 C         140.9217  137.3433  163.7225 C.ar    1  UNL1        0.1282
     32 C         140.9490  138.5478  164.6160 C.ar    1  UNL1        0.1574
     33 F         142.1296  138.7930  165.5084 F       1  UNL1       -0.2028
@<TRIPOS>BOND
     1     1     2    2
     2     2     3    1
     3     3     4   ar
     4     4     5   ar
     5     5     6   ar
     6     6     7   ar
     7     7     8   ar
     8     8     9    1
     9     9    16    1
    10    16    17    1
    11    17    18   ar
    12    18    19    1
    13    18    20   ar
    14    20    21   ar
    15    21    22   ar
    16    22    23   ar
    17    23    24    1
    18     9    25    1
    19    25    26    1
    20    26    27   ar
    21    27    28    1
    22    27    29   ar
    23    29    30   ar
    24    30    31   ar
    25    31    32   ar
    26    32    33    1
    27     9    10    1
    28    10    11   ar
    29    11    12   ar
    30    12    13   ar
    31    13    14   ar
    32    14    15   ar
    33    15     2    1
    34     8     3   ar
    35    23    17   ar
    36    32    26   ar
    37    15    10   ar
@<TRIPOS>MOLECULE
*****
 33 37 0 0 0
SMALL
GASTEIGER

@<TRIPOS>ATOM
      1 O         143.8657  142.6247  169.0955 O.2     1  UNL1       -0.2866
      2 C         142.9463  142.2334  167.9768 C.2     1  UNL1        0.1950
      3 C         141.7029  141.4466  168.2683 C.ar    1  UNL1        0.0353
      4 C         141.3789  141.0511  169.6785 C.ar    1  UNL1        0.0029
      5 C         140.1356  140.2643  169.9700 C.ar    1  UNL1        0.0001
      6 C         139.2161  139.8730  168.8513 C.ar    1  UNL1       -0.0003
      7 C         139.5401  140.2685  167.4411 C.ar    1  UNL1       -0.0039
      8 C         140.7834  141.0552  167.1496 C.ar    1  UNL1       -0.0153
      9 C         141.1074  141.4507  165.7394 C.3     1  UNL1        0.0463
     10 C         142.3507  142.2375  165.4479 C.ar    1  UNL1       -0.0153
     11 C         142.6747  142.6330  164.0377 C.ar    1  UNL1       -0.0039
     12 C         143.9181  143.4198  163.7462 C.ar    1  UNL1       -0.0003
     13 C         144.8375  143.8111  164.8649 C.ar    1  UNL1        0.0001
     14 C         144.5136  143.4157  166.2751 C.ar    1  UNL1        0.0029
     15 C         143.2702  142.6288  166.5666 C.ar    1  UNL1        0.0353
     16 C         139.8214  140.7122  165.5139 C.3     1  UNL1        0.0394
     17 C         139.7950  139.5075  164.6207 C.ar    1  UNL1        0.0364
     18 C         138.6159  139.2625  163.7263 C.ar    1  UNL1        0.1574
     19 F         137.4632  140.2224  163.7253 F       1  UNL1       -0.2028
     20 C         138.5897  138.0578  162.8331 C.ar    1  UNL1        0.1282
     21 N         139.7424  137.0979  162.8342 N.ar    1  UNL1       -0.2376
     22 C         140.9214  137.3429  163.7285 C.ar    1  UNL1        0.1282
     23 C         140.9477  138.5477  164.6218 C.ar    1  UNL1        0.1574
     24 F         142.1268  138.7926  165.5161 F       1  UNL1       -0.2028
     25 C         140.9847  141.5897  164.2508 C.3     1  UNL1        0.0394
     26 C         139.9506  142.5053  163.6658 C.ar    1  UNL1        0.0364
     27 C         139.3907  143.6275  164.4888 C.ar    1  UNL1        0.1574
     28 F         139.8651  143.8341  165.8967 F       1  UNL1       -0.2028
     29 C         138.3566  144.5431  163.9037 C.ar    1  UNL1        0.1282
     30 N         137.8823  144.3365  162.4957 N.ar    1  UNL1       -0.2376
     31 C         138.4422  143.2143  161.6728 C.ar    1  UNL1        0.1282
     32 C         139.4763  142.2987  162.2579 C.ar    1  UNL1        0.1574
     33 F         140.0362  141.1765  161.4349 F       1  UNL1       -0.2028
@<TRIPOS>BOND
     1     1     2    2
     2     2     3    1
     3     3     4   ar
     4     4     5   ar
     5     5     6   ar
     6     6     7   ar
     7     7     8   ar
     8     8     9    1
     9     9    16    1
    10    16    17    1
    11    17    18   ar
    12    18    19    1
    13    18    20   ar
    14    20    21   ar
    15    21    22   ar
    16    22    23   ar
    17    23    24    1
    18     9    25    1
    19    25    26    1
    20    26    27   ar
    21    27    28    1
    22    27    29   ar
    23    29    30   ar
    24    30    31   ar
    25    31    32   ar
    26    32    33    1
    27     9    10    1
    28    10    11   ar
    29    11    12   ar
    30    12    13   ar
    31    13    14   ar
    32    14    15   ar
    33    15     2    1
    34     8     3   ar
    35    23    17   ar
    36    32    26   ar
    37    15    10   ar
@<TRIPOS>MOLECULE
*****
 33 37 0 0 0
SMALL
GASTEIGER

@<TRIPOS>ATOM
      1 O         143.8661  142.6248  169.0941 O.2     1  UNL1       -0.2866
      2 C         142.9463  142.2336  167.9757 C.2     1  UNL1        0.1950
      3 C         143.2698  142.6293  166.5654 C.ar    1  UNL1        0.0353
      4 C         144.5131  143.4161  166.2736 C.ar    1  UNL1        0.0029
      5 C         144.8365  143.8117  164.8633 C.ar    1  UNL1        0.0001
      6 C         143.9167  143.4205  163.7449 C.ar    1  UNL1       -0.0003
      7 C         142.6735  142.6337  164.0367 C.ar    1  UNL1       -0.0039
      8 C         142.3500  142.2381  165.4469 C.ar    1  UNL1       -0.0153
      9 C         141.1067  141.4512  165.7388 C.3     1  UNL1        0.0463
     10 C         140.7833  141.0556  167.1490 C.ar    1  UNL1       -0.0153
     11 C         139.5400  140.2687  167.4409 C.ar    1  UNL1       -0.0039
     12 C         139.2166  139.8730  168.8511 C.ar    1  UNL1       -0.0003
     13 C         140.1364  140.2643  169.9696 C.ar    1  UNL1        0.0001
     14 C         141.3796  141.0511  169.6778 C.ar    1  UNL1        0.0029
     15 C         141.7031  141.4468  168.2675 C.ar    1  UNL1        0.0353
     16 C         140.9836  141.5903  164.2503 C.3     1  UNL1        0.0394
     17 C         139.9495  142.5062  163.6657 C.ar    1  UNL1        0.0364
     18 C         139.3896  143.6280  164.4892 C.ar    1  UNL1        0.1574
     19 F         139.8637  143.8338  165.8973 F       1  UNL1       -0.2028
     20 C         138.3555  144.5439  163.9045 C.ar    1  UNL1        0.1282
     21 N         137.8814  144.3380  162.4963 N.ar    1  UNL1       -0.2376
     22 C         138.4413  143.2163  161.6728 C.ar    1  UNL1        0.1282
     23 C         139.4754  142.3004  162.2576 C.ar    1  UNL1        0.1574
     24 F         140.0353  141.1786  161.4341 F       1  UNL1       -0.2028
     25 C         139.8207  140.7126  165.5137 C.3     1  UNL1        0.0394
     26 C         139.7941  139.5079  164.6205 C.ar    1  UNL1        0.0364
     27 C         140.9468  138.5479  164.6215 C.ar    1  UNL1        0.1574
     28 F         142.1259  138.7928  165.5158 F       1  UNL1       -0.2028
     29 C         140.9203  137.3431  163.7283 C.ar    1  UNL1        0.1282
     30 N         139.7411  137.0983  162.8340 N.ar    1  UNL1       -0.2376
     31 C         138.5885  138.0583  162.8330 C.ar    1  UNL1        0.1282
     32 C         138.6151  139.2630  163.7262 C.ar    1  UNL1        0.1574
     33 F         137.4624  140.2230  163.7251 F       1  UNL1       -0.2028
@<TRIPOS>BOND
     1     1     2    2
     2     2     3    1
     3     3     4   ar
     4     4     5   ar
     5     5     6   ar
     6     6     7   ar
     7     7     8   ar
     8     8     9    1
     9     9    16    1
    10    16    17    1
    11    17    18   ar
    12    18    19    1
    13    18    20   ar
    14    20    21   ar
    15    21    22   ar
    16    22    23   ar
    17    23    24    1
    18     9    25    1
    19    25    26    1
    20    26    27   ar
    21    27    28    1
    22    27    29   ar
    23    29    30   ar
    24    30    31   ar
    25    31    32   ar
    26    32    33    1
    27     9    10    1
    28    10    11   ar
    29    11    12   ar
    30    12    13   ar
    31    13    14   ar
    32    14    15   ar
    33    15     2    1
    34     8     3   ar
    35    23    17   ar
    36    32    26   ar
    37    15    10   ar
@<TRIPOS>MOLECULE
*****
 33 37 0 0 0
SMALL
GASTEIGER

@<TRIPOS>ATOM
      1 O         143.8664  142.6252  169.0912 O.2     1  UNL1       -0.2866
      2 C         142.9467  142.2342  167.9727 C.2     1  UNL1        0.1950
      3 C         141.7035  141.4470  168.2643 C.ar    1  UNL1        0.0353
      4 C         141.3802  141.0508  169.6744 C.ar    1  UNL1        0.0029
      5 C         140.1371  140.2636  169.9660 C.ar    1  UNL1        0.0001
      6 C         139.2174  139.8726  168.8474 C.ar    1  UNL1       -0.0003
      7 C         139.5407  140.2688  167.4373 C.ar    1  UNL1       -0.0039
      8 C         140.7838  141.0560  167.1457 C.ar    1  UNL1       -0.0153
      9 C         141.1071  141.4522  165.7356 C.3     1  UNL1        0.0463
     10 C         142.3502  142.2394  165.4440 C.ar    1  UNL1       -0.0153
     11 C         142.6736  142.6356  164.0338 C.ar    1  UNL1       -0.0039
     12 C         143.9167  143.4228  163.7423 C.ar    1  UNL1       -0.0003
     13 C         144.8364  143.8138  164.8608 C.ar    1  UNL1        0.0001
     14 C         144.5131  143.4176  166.2710 C.ar    1  UNL1        0.0029
     15 C         143.2700  142.6304  166.5626 C.ar    1  UNL1        0.0353
     16 C         139.8212  140.7135  165.5102 C.3     1  UNL1        0.0394
     17 C         139.7950  139.5087  164.6171 C.ar    1  UNL1        0.0364
     18 C         140.9482  138.5494  164.6177 C.ar    1  UNL1        0.1574
     19 F         142.1276  138.7950  165.5113 F       1  UNL1       -0.2028
     20 C         140.9219  137.3446  163.7245 C.ar    1  UNL1        0.1282
     21 N         139.7424  137.0990  162.8309 N.ar    1  UNL1       -0.2376
     22 C         138.5892  138.0582  162.8303 C.ar    1  UNL1        0.1282
     23 C         138.6156  139.2631  163.7235 C.ar    1  UNL1        0.1574
     24 F         137.4624  140.2223  163.7229 F       1  UNL1       -0.2028
     25 C         140.9839  141.5918  164.2471 C.3     1  UNL1        0.0394
     26 C         139.9503  142.5086  163.6629 C.ar    1  UNL1        0.0364
     27 C         139.3911  143.6304  164.4869 C.ar    1  UNL1        0.1574
     28 F         139.8656  143.8353  165.8951 F       1  UNL1       -0.2028
     29 C         138.3576  144.5472  163.9027 C.ar    1  UNL1        0.1282
     30 N         137.8832  144.3421  162.4945 N.ar    1  UNL1       -0.2376
     31 C         138.4424  143.2204  161.6706 C.ar    1  UNL1        0.1282
     32 C         139.4760  142.3036  162.2548 C.ar    1  UNL1        0.1574
     33 F         140.0352  141.1818  161.4308 F       1  UNL1       -0.2028
@<TRIPOS>BOND
     1     1     2    2
     2     2     3    1
     3     3     4   ar
     4     4     5   ar
     5     5     6   ar
     6     6     7   ar
     7     7     8   ar
     8     8     9    1
     9     9    16    1
    10    16    17    1
    11    17    18   ar
    12    18    19    1
    13    18    20   ar
    14    20    21   ar
    15    21    22   ar
    16    22    23   ar
    17    23    24    1
    18     9    25    1
    19    25    26    1
    20    26    27   ar
    21    27    28    1
    22    27    29   ar
    23    29    30   ar
    24    30    31   ar
    25    31    32   ar
    26    32    33    1
    27     9    10    1
    28    10    11   ar
    29    11    12   ar
    30    12    13   ar
    31    13    14   ar
    32    14    15   ar
    33    15     2    1
    34     8     3   ar
    35    23    17   ar
    36    32    26   ar
    37    15    10   ar
@<TRIPOS>MOLECULE
*****
 33 37 0 0 0
SMALL
GASTEIGER

@<TRIPOS>ATOM
      1 O         137.7632  139.2771  169.5072 O.2     1  UNL1       -0.2866
      2 C         138.7257  139.8352  168.5011 C.2     1  UNL1        0.1950
      3 C         138.8430  139.2043  167.1452 C.ar    1  UNL1        0.0353
      4 C         137.9979  138.0154  166.7955 C.ar    1  UNL1        0.0029
      5 C         138.1152  137.3846  165.4397 C.ar    1  UNL1        0.0001
      6 C         139.0776  137.9426  164.4336 C.ar    1  UNL1       -0.0003
      7 C         139.9227  139.1315  164.7833 C.ar    1  UNL1       -0.0039
      8 C         139.8054  139.7623  166.1391 C.ar    1  UNL1       -0.0153
      9 C         140.6505  140.9513  166.4888 C.3     1  UNL1        0.0463
     10 C         140.5332  141.5821  167.8446 C.ar    1  UNL1       -0.0153
     11 C         141.3783  142.7711  168.1943 C.ar    1  UNL1       -0.0039
     12 C         141.2610  143.4019  169.5501 C.ar    1  UNL1       -0.0003
     13 C         140.2985  142.8439  170.5563 C.ar    1  UNL1        0.0001
     14 C         139.4534  141.6550  170.2066 C.ar    1  UNL1        0.0029
     15 C         139.5707  141.0241  168.8507 C.ar    1  UNL1        0.0353
     16 C         141.1177  140.7035  165.0851 C.3     1  UNL1        0.0394
     17 C         142.4986  140.1729  164.8369 C.ar    1  UNL1        0.0364
     18 C         143.2027  140.4869  163.5502 C.ar    1  UNL1        0.1574
     19 F         142.5258  141.3315  162.5116 F       1  UNL1       -0.2028
     20 C         144.5836  139.9563  163.3020 C.ar    1  UNL1        0.1282
     21 N         145.2604  139.1117  164.3405 N.ar    1  UNL1       -0.2376
     22 C         144.5563  138.7976  165.6273 C.ar    1  UNL1        0.1282
     23 C         143.1754  139.3283  165.8754 C.ar    1  UNL1        0.1574
     24 F         142.4713  139.0142  167.1622 F       1  UNL1       -0.2028
     25 C         141.6579  142.0542  166.3510 C.3     1  UNL1        0.0394
     26 C         141.4487  143.1385  165.3359 C.ar    1  UNL1        0.0364
     27 C         142.6298  143.7840  164.6738 C.ar    1  UNL1        0.1574
     28 F         144.0200  143.3452  165.0268 F       1  UNL1       -0.2028
     29 C         142.4206  144.8683  163.6586 C.ar    1  UNL1        0.1282
     30 N         141.0302  145.3071  163.3056 N.ar    1  UNL1       -0.2376
     31 C         139.8492  144.6616  163.9677 C.ar    1  UNL1        0.1282
     32 C         140.0585  143.5772  164.9829 C.ar    1  UNL1        0.1574
     33 F         138.8774  142.9317  165.6450 F       1  UNL1       -0.2028
@<TRIPOS>BOND
     1     1     2    2
     2     2     3    1
     3     3     4   ar
     4     4     5   ar
     5     5     6   ar
     6     6     7   ar
     7     7     8   ar
     8     8     9    1
     9     9    16    1
    10    16    17    1
    11    17    18   ar
    12    18    19    1
    13    18    20   ar
    14    20    21   ar
    15    21    22   ar
    16    22    23   ar
    17    23    24    1
    18     9    25    1
    19    25    26    1
    20    26    27   ar
    21    27    28    1
    22    27    29   ar
    23    29    30   ar
    24    30    31   ar
    25    31    32   ar
    26    32    33    1
    27     9    10    1
    28    10    11   ar
    29    11    12   ar
    30    12    13   ar
    31    13    14   ar
    32    14    15   ar
    33    15     2    1
    34     8     3   ar
    35    23    17   ar
    36    32    26   ar
    37    15    10   ar
