@<TRIPOS>MOLECULE
*****
 29 33 0 0 0
SMALL
GASTEIGER

@<TRIPOS>ATOM
      1 C         139.2317  139.8654  166.3033 C.ar    1  UNL1        0.0176
      2 C         139.1922  138.4475  165.8152 C.ar    1  UNL1        0.0046
      3 C         138.7882  138.1520  164.4012 C.ar    1  UNL1        0.0367
      4 C         138.4236  139.2743  163.4752 C.ar    1  UNL1        0.1364
      5 C         138.4631  140.6921  163.9632 C.ar    1  UNL1        0.0357
      6 C         138.8672  140.9877  165.3773 C.ar    1  UNL1        0.0021
      7 C         138.0985  141.8145  163.0372 C.3     1  UNL1        0.1583
      8 C         137.7627  143.0340  162.2311 C.3     1  UNL1        0.2351
      9 O         137.9374  144.2351  163.1127 O.2     1  UNL1       -0.4478
     10 C         138.3812  143.7577  164.4637 C.2     1  UNL1        0.2770
     11 N         138.6739  144.6242  165.6525 N.pl3   1  UNL1       -0.3133
     12 N         138.4808  142.2617  164.4171 N.2     1  UNL1       -0.2202
     13 C         137.6945  141.5190  161.6232 C.3     1  UNL1        0.1209
     14 C         137.7962  141.2058  161.8816 C.3     1  UNL1        0.1504
     15 O         137.6893  141.5350  161.6100 O.3     1  UNL1       -0.3532
     16 C         137.7962  141.2058  161.8816 C.3     1  UNL1        0.1504
     17 C         137.6550  140.1011  161.1353 C.3     1  UNL1        0.2123
     18 O         138.0196  138.9788  162.0613 O.3     1  UNL1       -0.4755
     19 H         138.5792  145.6017  165.5845 H       1  UNL1        0.1466
     20 H         138.9609  144.2153  166.5009 H       1  UNL1        0.1466
     21 C         141.3404  141.1497  169.4103 C.ar    1  UNL1        0.0447
     22 C         140.4439  140.7519  170.5453 C.ar    1  UNL1        0.0289
     23 C         139.1434  140.0586  170.2662 C.ar    1  UNL1        0.0995
     24 N         138.7393  139.7631  168.8522 N.ar    1  UNL1       -0.2438
     25 C         139.6358  140.1609  167.7172 C.ar    1  UNL1        0.0819
     26 C         140.9364  140.8542  167.9964 C.ar    1  UNL1        0.0274
     27 C         145.2421  143.2296  170.2475 C.3     1  UNL1        0.0903
     28 C         143.9416  142.5363  169.9684 C.1     1  UNL1       -0.0854
     29 C         142.6409  141.8430  169.6894 C.1     1  UNL1       -0.0642
@<TRIPOS>BOND
     1    27    28    1
     2    28    29    3
     3    29    21    1
     4    21    22   ar
     5    22    23   ar
     6    23    24   ar
     7    24    25   ar
     8    25     1    1
     9     1     2   ar
    10     2     3   ar
    11     3     4   ar
    12     4     5   ar
    13     5     6   ar
    14     5     7    1
    15     7     8    1
    16     8     9    1
    17     9    10    1
    18    10    11    1
    19    10    12    2
    20     7    13    1
    21    13    14    1
    22    14    15    1
    23    15    16    1
    24    13    17    1
    25    17    18    1
    26    25    26   ar
    27    26    21   ar
    28     6     1   ar
    29    12     7    1
    30    16    13    1
    31    18     4    1
    32    11    19    1
    33    11    20    1
@<TRIPOS>MOLECULE
*****
 29 33 0 0 0
SMALL
GASTEIGER

@<TRIPOS>ATOM
      1 C         141.2186  141.8124  166.0278 C.ar    1  UNL1        0.0176
      2 C         141.8190  140.6256  165.3343 C.ar    1  UNL1        0.0046
      3 C         142.4537  139.5293  166.1376 C.ar    1  UNL1        0.0367
      4 C         142.4881  139.6199  167.6345 C.ar    1  UNL1        0.1364
      5 C         141.8878  140.8067  168.3280 C.ar    1  UNL1        0.0357
      6 C         141.2530  141.9030  167.5247 C.ar    1  UNL1        0.0021
      7 C         141.9222  140.8973  169.8249 C.3     1  UNL1        0.1583
      8 C         141.8818  141.1252  171.3069 C.3     1  UNL1        0.2351
      9 O         141.1914  142.4335  171.5561 O.2     1  UNL1       -0.4478
     10 C         140.8051  143.0141  170.2282 C.2     1  UNL1        0.2770
     11 N         140.0924  144.3155  170.0086 N.pl3   1  UNL1       -0.3133
     12 N         141.2567  142.0647  169.1581 N.2     1  UNL1       -0.2202
     13 C         142.5569  139.8011  170.6282 C.3     1  UNL1        0.1209
     14 C         142.5473  139.7759  170.2106 C.3     1  UNL1        0.1504
     15 O         142.5574  139.8024  170.6496 O.3     1  UNL1       -0.3532
     16 C         142.5473  139.7759  170.2106 C.3     1  UNL1        0.1504
     17 C         143.1572  138.6143  169.9347 C.3     1  UNL1        0.2123
     18 O         143.1228  138.5237  168.4378 O.3     1  UNL1       -0.4755
     19 H         139.8355  144.8721  170.7790 H       1  UNL1        0.1466
     20 H         139.8814  144.6130  169.0942 H       1  UNL1        0.1466
     21 C         140.3795  144.2416  163.0037 C.ar    1  UNL1        0.0447
     22 C         139.3145  145.1011  163.6177 C.ar    1  UNL1        0.0289
     23 C         138.8842  144.8644  165.0350 C.ar    1  UNL1        0.0995
     24 N         139.5189  143.7682  165.8384 N.ar    1  UNL1       -0.2438
     25 C         140.5839  142.9087  165.2244 C.ar    1  UNL1        0.0819
     26 C         141.0142  143.1454  163.8071 C.ar    1  UNL1        0.0274
     27 C         141.6704  144.9517  158.7518 C.3     1  UNL1        0.0903
     28 C         141.2401  144.7150  160.1691 C.1     1  UNL1       -0.0854
     29 C         140.8098  144.4783  161.5864 C.1     1  UNL1       -0.0642
@<TRIPOS>BOND
     1    27    28    1
     2    28    29    3
     3    29    21    1
     4    21    22   ar
     5    22    23   ar
     6    23    24   ar
     7    24    25   ar
     8    25     1    1
     9     1     2   ar
    10     2     3   ar
    11     3     4   ar
    12     4     5   ar
    13     5     6   ar
    14     5     7    1
    15     7     8    1
    16     8     9    1
    17     9    10    1
    18    10    11    1
    19    10    12    2
    20     7    13    1
    21    13    14    1
    22    14    15    1
    23    15    16    1
    24    13    17    1
    25    17    18    1
    26    25    26   ar
    27    26    21   ar
    28     6     1   ar
    29    12     7    1
    30    16    13    1
    31    18     4    1
    32    11    19    1
    33    11    20    1
@<TRIPOS>MOLECULE
*****
 29 33 0 0 0
SMALL
GASTEIGER

@<TRIPOS>ATOM
      1 C         141.2368  139.9522  166.1395 C.ar    1  UNL1        0.0176
      2 C         140.6051  138.7074  165.5903 C.ar    1  UNL1        0.0046
      3 C         141.1055  138.1165  164.3056 C.ar    1  UNL1        0.0367
      4 C         142.2376  138.7703  163.5701 C.ar    1  UNL1        0.1364
      5 C         142.8692  140.0151  164.1192 C.ar    1  UNL1        0.0357
      6 C         142.3688  140.6061  165.4039 C.ar    1  UNL1        0.0021
      7 C         144.0013  140.6689  163.3837 C.3     1  UNL1        0.1583
      8 C         145.1350  141.4299  162.7629 C.3     1  UNL1        0.2351
      9 O         145.4445  142.6026  163.6456 O.2     1  UNL1       -0.4478
     10 C         144.5021  142.5664  164.8120 C.2     1  UNL1        0.2770
     11 N         144.4591  143.5520  165.9417 N.pl3   1  UNL1       -0.3133
     12 N         143.6100  141.3713  164.6502 N.2     1  UNL1       -0.2202
     13 C         144.5017  140.0780  162.0991 C.3     1  UNL1        0.1209
     14 C         144.1858  139.8956  162.3043 C.3     1  UNL1        0.1504
     15 O         144.5178  140.0873  162.0886 O.3     1  UNL1       -0.3532
     16 C         144.1858  139.8956  162.3043 C.3     1  UNL1        0.1504
     17 C         143.8700  138.8332  161.5500 C.3     1  UNL1        0.2123
     18 O         142.7380  138.1794  162.2855 O.3     1  UNL1       -0.4755
     19 H         145.0894  144.3081  165.9596 H       1  UNL1        0.1466
     20 H         143.8005  143.4429  166.6654 H       1  UNL1        0.1466
     21 C         139.1095  140.4755  169.4487 C.ar    1  UNL1        0.0447
     22 C         139.7355  141.7250  169.9935 C.ar    1  UNL1        0.0289
     23 C         140.8618  142.3837  169.2536 C.ar    1  UNL1        0.0995
     24 N         141.3623  141.7927  167.9689 N.ar    1  UNL1       -0.2438
     25 C         140.7364  140.5432  167.4241 C.ar    1  UNL1        0.0819
     26 C         139.6099  139.8845  168.1640 C.ar    1  UNL1        0.0274
     27 C         135.7304  138.4995  171.6683 C.3     1  UNL1        0.0903
     28 C         136.8567  139.1581  170.9284 C.1     1  UNL1       -0.0854
     29 C         137.9831  139.8168  170.1885 C.1     1  UNL1       -0.0642
@<TRIPOS>BOND
     1    27    28    1
     2    28    29    3
     3    29    21    1
     4    21    22   ar
     5    22    23   ar
     6    23    24   ar
     7    24    25   ar
     8    25     1    1
     9     1     2   ar
    10     2     3   ar
    11     3     4   ar
    12     4     5   ar
    13     5     6   ar
    14     5     7    1
    15     7     8    1
    16     8     9    1
    17     9    10    1
    18    10    11    1
    19    10    12    2
    20     7    13    1
    21    13    14    1
    22    14    15    1
    23    15    16    1
    24    13    17    1
    25    17    18    1
    26    25    26   ar
    27    26    21   ar
    28     6     1   ar
    29    12     7    1
    30    16    13    1
    31    18     4    1
    32    11    19    1
    33    11    20    1
@<TRIPOS>MOLECULE
*****
 29 33 0 0 0
SMALL
GASTEIGER

@<TRIPOS>ATOM
      1 C         140.2663  140.8555  166.4723 C.ar    1  UNL1        0.0176
      2 C         140.2607  139.3574  166.3972 C.ar    1  UNL1        0.0046
      3 C         139.6091  138.6671  165.2358 C.ar    1  UNL1        0.0367
      4 C         138.9630  139.4750  164.1495 C.ar    1  UNL1        0.1364
      5 C         138.9685  140.9730  164.2246 C.ar    1  UNL1        0.0357
      6 C         139.6202  141.6634  165.3861 C.ar    1  UNL1        0.0021
      7 C         138.3224  141.7809  163.1384 C.3     1  UNL1        0.1583
      8 C         137.7195  142.7163  162.1327 C.3     1  UNL1        0.2351
      9 O         137.9563  144.1202  162.6052 O.2     1  UNL1       -0.4478
     10 C         138.7055  144.0524  163.9028 C.2     1  UNL1        0.2770
     11 N         139.1504  145.2244  164.7264 N.pl3   1  UNL1       -0.3133
     12 N         138.9318  142.6066  164.2324 N.2     1  UNL1       -0.2202
     13 C         137.6708  141.0906  161.9770 C.3     1  UNL1        0.1209
     14 C         137.8510  140.8652  162.2801 C.3     1  UNL1        0.1504
     15 O         137.6615  141.1021  161.9615 O.3     1  UNL1       -0.3532
     16 C         137.8510  140.8652  162.2801 C.3     1  UNL1        0.1504
     17 C         137.6652  139.5925  161.9019 C.3     1  UNL1        0.2123
     18 O         138.3114  138.7847  162.9881 O.3     1  UNL1       -0.4755
     19 H         138.9537  146.1408  164.4250 H       1  UNL1        0.1466
     20 H         139.6391  145.0773  165.5683 H       1  UNL1        0.1466
     21 C         140.9005  143.4141  169.4390 C.ar    1  UNL1        0.0447
     22 C         142.2212  142.9264  169.9566 C.ar    1  UNL1        0.0289
     23 C         142.8903  141.7484  169.3127 C.ar    1  UNL1        0.0995
     24 N         142.2386  141.0581  168.1512 N.ar    1  UNL1       -0.2438
     25 C         140.9179  141.5458  167.6337 C.ar    1  UNL1        0.0819
     26 C         140.2488  142.7239  168.2777 C.ar    1  UNL1        0.0274
     27 C         138.8932  146.9482  171.3706 C.3     1  UNL1        0.0903
     28 C         139.5623  145.7702  170.7268 C.1     1  UNL1       -0.0854
     29 C         140.2314  144.5921  170.0829 C.1     1  UNL1       -0.0642
@<TRIPOS>BOND
     1    27    28    1
     2    28    29    3
     3    29    21    1
     4    21    22   ar
     5    22    23   ar
     6    23    24   ar
     7    24    25   ar
     8    25     1    1
     9     1     2   ar
    10     2     3   ar
    11     3     4   ar
    12     4     5   ar
    13     5     6   ar
    14     5     7    1
    15     7     8    1
    16     8     9    1
    17     9    10    1
    18    10    11    1
    19    10    12    2
    20     7    13    1
    21    13    14    1
    22    14    15    1
    23    15    16    1
    24    13    17    1
    25    17    18    1
    26    25    26   ar
    27    26    21   ar
    28     6     1   ar
    29    12     7    1
    30    16    13    1
    31    18     4    1
    32    11    19    1
    33    11    20    1
@<TRIPOS>MOLECULE
*****
 29 33 0 0 0
SMALL
GASTEIGER

@<TRIPOS>ATOM
      1 C         142.0867  141.9985  166.5285 C.ar    1  UNL1        0.0176
      2 C         143.4809  142.5421  166.4236 C.ar    1  UNL1        0.0046
      3 C         143.9180  143.2499  165.1754 C.ar    1  UNL1        0.0367
      4 C         142.9609  143.4142  164.0322 C.ar    1  UNL1        0.1364
      5 C         141.5668  142.8707  164.1370 C.ar    1  UNL1        0.0357
      6 C         141.1297  142.1629  165.3853 C.ar    1  UNL1        0.0021
      7 C         140.6098  143.0351  162.9938 C.3     1  UNL1        0.1583
      8 C         139.5474  143.1230  161.9384 C.3     1  UNL1        0.2351
      9 O         138.3142  142.4505  162.4649 O.2     1  UNL1       -0.4478
     10 C         138.6144  141.9469  163.8456 C.2     1  UNL1        0.2770
     11 N         137.6630  141.2113  164.7419 N.pl3   1  UNL1       -0.3133
     12 N         140.0331  142.3082  164.1725 N.2     1  UNL1       -0.2202
     13 C         141.0468  143.7429  161.7456 C.3     1  UNL1        0.1209
     14 C         141.3138  143.6970  162.0646 C.3     1  UNL1        0.1504
     15 O         141.0332  143.7452  161.7293 O.3     1  UNL1       -0.3532
     16 C         141.3138  143.6970  162.0646 C.3     1  UNL1        0.1504
     17 C         142.4409  144.2864  161.6407 C.3     1  UNL1        0.2123
     18 O         143.3980  144.1220  162.7840 O.3     1  UNL1       -0.4755
     19 H         136.7470  141.0199  164.4363 H       1  UNL1        0.1466
     20 H         137.9546  140.9199  165.6360 H       1  UNL1        0.1466
     21 C         142.0267  139.4451  169.5660 C.ar    1  UNL1        0.0447
     22 C         140.7756  139.8750  170.2730 C.ar    1  UNL1        0.0289
     23 C         139.9615  141.0127  169.7319 C.ar    1  UNL1        0.0995
     24 N         140.3986  141.7206  168.4837 N.ar    1  UNL1       -0.2438
     25 C         141.6497  141.2907  167.7767 C.ar    1  UNL1        0.0819
     26 C         142.4638  140.1529  168.3179 C.ar    1  UNL1        0.0274
     27 C         144.4689  136.0319  171.1894 C.3     1  UNL1        0.0903
     28 C         143.6549  137.1696  170.6483 C.1     1  UNL1       -0.0854
     29 C         142.8408  138.3074  170.1071 C.1     1  UNL1       -0.0642
@<TRIPOS>BOND
     1    27    28    1
     2    28    29    3
     3    29    21    1
     4    21    22   ar
     5    22    23   ar
     6    23    24   ar
     7    24    25   ar
     8    25     1    1
     9     1     2   ar
    10     2     3   ar
    11     3     4   ar
    12     4     5   ar
    13     5     6   ar
    14     5     7    1
    15     7     8    1
    16     8     9    1
    17     9    10    1
    18    10    11    1
    19    10    12    2
    20     7    13    1
    21    13    14    1
    22    14    15    1
    23    15    16    1
    24    13    17    1
    25    17    18    1
    26    25    26   ar
    27    26    21   ar
    28     6     1   ar
    29    12     7    1
    30    16    13    1
    31    18     4    1
    32    11    19    1
    33    11    20    1
@<TRIPOS>MOLECULE
*****
 29 33 0 0 0
SMALL
GASTEIGER

@<TRIPOS>ATOM
      1 C         141.5806  139.9007  166.1973 C.ar    1  UNL1        0.0176
      2 C         142.9751  139.3479  166.1994 C.ar    1  UNL1        0.0046
      3 C         143.5312  138.7108  164.9605 C.ar    1  UNL1        0.0367
      4 C         142.6929  138.6265  163.7195 C.ar    1  UNL1        0.1364
      5 C         141.2984  139.1792  163.7174 C.ar    1  UNL1        0.0357
      6 C         140.7423  139.8163  164.9563 C.ar    1  UNL1        0.0021
      7 C         140.4601  139.0948  162.4764 C.3     1  UNL1        0.1583
      8 C         139.5086  139.0827  161.3168 C.3     1  UNL1        0.2351
      9 O         138.2327  139.7372  161.7573 O.2     1  UNL1       -0.4478
     10 C         138.3956  140.1537  163.1890 C.2     1  UNL1        0.2770
     11 N         137.3634  140.8457  164.0288 N.pl3   1  UNL1       -0.3133
     12 N         139.7722  139.7568  163.6335 N.2     1  UNL1       -0.2202
     13 C         141.0162  138.4577  161.2375 C.3     1  UNL1        0.1209
     14 C         141.2501  138.4813  161.5838 C.3     1  UNL1        0.1504
     15 O         141.0042  138.4565  161.2198 O.3     1  UNL1       -0.3532
     16 C         141.2501  138.4813  161.5838 C.3     1  UNL1        0.1504
     17 C         142.4106  137.9050  161.2397 C.3     1  UNL1        0.2123
     18 O         143.2489  137.9894  162.4807 O.3     1  UNL1       -0.4755
     19 H         136.4838  141.0659  163.6454 H       1  UNL1        0.1466
     20 H         137.5654  141.0797  164.9635 H       1  UNL1        0.1466
     21 C         139.3162  140.5377  169.3936 C.ar    1  UNL1        0.0447
     22 C         139.9123  141.8120  169.9140 C.ar    1  UNL1        0.0289
     23 C         141.0645  142.4492  169.1955 C.ar    1  UNL1        0.0995
     24 N         141.6207  141.8121  167.9565 N.ar    1  UNL1       -0.2438
     25 C         141.0246  140.5378  167.4362 C.ar    1  UNL1        0.0819
     26 C         139.8723  139.9006  168.1548 C.ar    1  UNL1        0.0274
     27 C         135.8595  138.6260  171.5493 C.3     1  UNL1        0.0903
     28 C         137.0117  139.2632  170.8308 C.1     1  UNL1       -0.0854
     29 C         138.1640  139.9005  170.1122 C.1     1  UNL1       -0.0642
@<TRIPOS>BOND
     1    27    28    1
     2    28    29    3
     3    29    21    1
     4    21    22   ar
     5    22    23   ar
     6    23    24   ar
     7    24    25   ar
     8    25     1    1
     9     1     2   ar
    10     2     3   ar
    11     3     4   ar
    12     4     5   ar
    13     5     6   ar
    14     5     7    1
    15     7     8    1
    16     8     9    1
    17     9    10    1
    18    10    11    1
    19    10    12    2
    20     7    13    1
    21    13    14    1
    22    14    15    1
    23    15    16    1
    24    13    17    1
    25    17    18    1
    26    25    26   ar
    27    26    21   ar
    28     6     1   ar
    29    12     7    1
    30    16    13    1
    31    18     4    1
    32    11    19    1
    33    11    20    1
@<TRIPOS>MOLECULE
*****
 29 33 0 0 0
SMALL
GASTEIGER

@<TRIPOS>ATOM
      1 C         142.7582  142.0070  165.8771 C.ar    1  UNL1        0.0176
      2 C         143.4420  142.5330  167.1043 C.ar    1  UNL1        0.0046
      3 C         142.8615  142.2622  168.4606 C.ar    1  UNL1        0.0367
      4 C         141.5973  141.4653  168.5898 C.ar    1  UNL1        0.1364
      5 C         140.9135  140.9392  167.3628 C.ar    1  UNL1        0.0357
      6 C         141.4940  141.2101  166.0064 C.ar    1  UNL1        0.0021
      7 C         139.6493  140.1423  167.4920 C.3     1  UNL1        0.1583
      8 C         138.3858  139.3344  167.4646 C.3     1  UNL1        0.2351
      9 O         138.0646  139.0246  166.0325 O.2     1  UNL1       -0.4478
     10 C         139.1296  139.6410  165.1748 C.2     1  UNL1        0.2770
     11 N         139.2025  139.5778  163.6780 N.pl3   1  UNL1       -0.3133
     12 N         140.1090  140.3318  166.0768 N.2     1  UNL1       -0.2202
     13 C         139.0688  139.8715  168.8483 C.3     1  UNL1        0.1209
     14 C         139.4215  140.0938  168.8123 C.3     1  UNL1        0.1504
     15 O         139.0508  139.8601  168.8502 O.3     1  UNL1       -0.3532
     16 C         139.4215  140.0938  168.8123 C.3     1  UNL1        0.1504
     17 C         139.7525  140.3975  170.0754 C.3     1  UNL1        0.2123
     18 O         141.0168  141.1944  169.9461 O.3     1  UNL1       -0.4755
     19 H         138.5082  139.0978  163.1712 H       1  UNL1        0.1466
     20 H         139.9446  140.0162  163.2023 H       1  UNL1        0.1466
     21 C         143.0977  143.2496  162.1234 C.ar    1  UNL1        0.0447
     22 C         144.4997  142.8195  161.8081 C.ar    1  UNL1        0.0289
     23 C         145.3212  142.1186  162.8491 C.ar    1  UNL1        0.0995
     24 N         144.7407  141.8478  164.2055 N.ar    1  UNL1       -0.2438
     25 C         143.3387  142.2778  164.5208 C.ar    1  UNL1        0.0819
     26 C         142.5172  142.9787  163.4797 C.ar    1  UNL1        0.0274
     27 C         140.6331  145.3523  159.0002 C.3     1  UNL1        0.0903
     28 C         141.4546  144.6514  160.0413 C.1     1  UNL1       -0.0854
     29 C         142.2761  143.9505  161.0824 C.1     1  UNL1       -0.0642
@<TRIPOS>BOND
     1    27    28    1
     2    28    29    3
     3    29    21    1
     4    21    22   ar
     5    22    23   ar
     6    23    24   ar
     7    24    25   ar
     8    25     1    1
     9     1     2   ar
    10     2     3   ar
    11     3     4   ar
    12     4     5   ar
    13     5     6   ar
    14     5     7    1
    15     7     8    1
    16     8     9    1
    17     9    10    1
    18    10    11    1
    19    10    12    2
    20     7    13    1
    21    13    14    1
    22    14    15    1
    23    15    16    1
    24    13    17    1
    25    17    18    1
    26    25    26   ar
    27    26    21   ar
    28     6     1   ar
    29    12     7    1
    30    16    13    1
    31    18     4    1
    32    11    19    1
    33    11    20    1
@<TRIPOS>MOLECULE
*****
 29 33 0 0 0
SMALL
GASTEIGER

@<TRIPOS>ATOM
      1 C         141.6910  140.6498  165.7014 C.ar    1  UNL1        0.0176
      2 C         140.5138  139.8814  165.1780 C.ar    1  UNL1        0.0046
      3 C         139.3993  139.4939  166.1040 C.ar    1  UNL1        0.0367
      4 C         139.4618  139.8747  167.5535 C.ar    1  UNL1        0.1364
      5 C         140.6389  140.6431  168.0770 C.ar    1  UNL1        0.0357
      6 C         141.7535  141.0306  167.1509 C.ar    1  UNL1        0.0021
      7 C         140.7015  141.0239  169.5265 C.3     1  UNL1        0.1583
      8 C         140.9021  141.4724  170.9437 C.3     1  UNL1        0.2351
      9 O         142.2094  142.2044  171.0177 O.2     1  UNL1       -0.4478
     10 C         142.8167  142.2083  169.6462 C.2     1  UNL1        0.2770
     11 N         144.1260  142.8321  169.2635 N.pl3   1  UNL1       -0.3133
     12 N         141.8849  141.4787  168.7245 N.2     1  UNL1       -0.2202
     13 C         139.5870  140.6364  170.4525 C.3     1  UNL1        0.1209
     14 C         139.5696  140.5301  170.0481 C.3     1  UNL1        0.1504
     15 O         139.5879  140.6418  170.4732 O.3     1  UNL1       -0.3532
     16 C         139.5696  140.5301  170.0481 C.3     1  UNL1        0.1504
     17 C         138.4099  139.8680  169.9291 C.3     1  UNL1        0.2123
     18 O         138.3473  139.4872  168.4796 O.3     1  UNL1       -0.4755
     19 H         144.6696  143.2918  169.9435 H       1  UNL1        0.1466
     20 H         144.4416  142.7819  168.3324 H       1  UNL1        0.1466
     21 C         143.8483  141.0608  162.3958 C.ar    1  UNL1        0.0447
     22 C         145.0345  141.8123  162.9231 C.ar    1  UNL1        0.0289
     23 C         145.1063  142.1763  164.3764 C.ar    1  UNL1        0.0995
     24 N         143.9917  141.7888  165.3026 N.ar    1  UNL1       -0.2438
     25 C         142.8055  141.0373  164.7753 C.ar    1  UNL1        0.0819
     26 C         142.7338  140.6733  163.3219 C.ar    1  UNL1        0.0274
     27 C         143.6330  139.9688  158.0356 C.3     1  UNL1        0.0903
     28 C         143.7047  140.3328  159.4890 C.1     1  UNL1       -0.0854
     29 C         143.7765  140.6968  160.9424 C.1     1  UNL1       -0.0642
@<TRIPOS>BOND
     1    27    28    1
     2    28    29    3
     3    29    21    1
     4    21    22   ar
     5    22    23   ar
     6    23    24   ar
     7    24    25   ar
     8    25     1    1
     9     1     2   ar
    10     2     3   ar
    11     3     4   ar
    12     4     5   ar
    13     5     6   ar
    14     5     7    1
    15     7     8    1
    16     8     9    1
    17     9    10    1
    18    10    11    1
    19    10    12    2
    20     7    13    1
    21    13    14    1
    22    14    15    1
    23    15    16    1
    24    13    17    1
    25    17    18    1
    26    25    26   ar
    27    26    21   ar
    28     6     1   ar
    29    12     7    1
    30    16    13    1
    31    18     4    1
    32    11    19    1
    33    11    20    1
@<TRIPOS>MOLECULE
*****
 29 33 0 0 0
SMALL
GASTEIGER

@<TRIPOS>ATOM
      1 C         141.2400  140.9600  165.7378 C.ar    1  UNL1        0.0176
      2 C         142.4998  141.6450  165.2977 C.ar    1  UNL1        0.0046
      3 C         143.4044  142.2767  166.3140 C.ar    1  UNL1        0.0367
      4 C         143.0491  142.2234  167.7703 C.ar    1  UNL1        0.1364
      5 C         141.7894  141.5384  168.2104 C.ar    1  UNL1        0.0357
      6 C         140.8848  140.9067  167.1942 C.ar    1  UNL1        0.0021
      7 C         141.4341  141.4851  169.6668 C.3     1  UNL1        0.1583
      8 C         140.9502  141.3526  171.0804 C.3     1  UNL1        0.2351
      9 O         139.6540  140.5979  171.0579 O.2     1  UNL1       -0.4478
     10 C         139.3369  140.2640  169.6303 C.2     1  UNL1        0.2770
     11 N         138.1313  139.5135  169.1473 N.pl3   1  UNL1       -0.3133
     12 N         140.4370  140.8123  168.7706 N.2     1  UNL1       -0.2202
     13 C         142.3387  142.1167  170.6830 C.3     1  UNL1        0.1209
     14 C         142.4378  142.1316  170.2767 C.3     1  UNL1        0.1504
     15 O         142.3336  142.1160  170.7038 O.3     1  UNL1       -0.3532
     16 C         142.4378  142.1316  170.2767 C.3     1  UNL1        0.1504
     17 C         143.5984  142.8017  170.2429 C.3     1  UNL1        0.2123
     18 O         143.9537  142.8550  168.7865 O.3     1  UNL1       -0.4755
     19 H         137.4606  139.1920  169.7923 H       1  UNL1        0.1466
     20 H         138.0107  139.3426  168.1853 H       1  UNL1        0.1466
     21 C         139.1502  140.4005  162.4108 C.ar    1  UNL1        0.0447
     22 C         138.5264  139.0650  162.6890 C.ar    1  UNL1        0.0289
     23 C         138.8071  138.3612  163.9836 C.ar    1  UNL1        0.0995
     24 N         139.7117  138.9929  164.9999 N.ar    1  UNL1       -0.2438
     25 C         140.3355  140.3283  164.7216 C.ar    1  UNL1        0.0819
     26 C         140.0547  141.0321  163.4270 C.ar    1  UNL1        0.0274
     27 C         138.3080  142.5118  158.5271 C.3     1  UNL1        0.0903
     28 C         138.5887  141.8080  159.8216 C.1     1  UNL1       -0.0854
     29 C         138.8694  141.1042  161.1162 C.1     1  UNL1       -0.0642
@<TRIPOS>BOND
     1    27    28    1
     2    28    29    3
     3    29    21    1
     4    21    22   ar
     5    22    23   ar
     6    23    24   ar
     7    24    25   ar
     8    25     1    1
     9     1     2   ar
    10     2     3   ar
    11     3     4   ar
    12     4     5   ar
    13     5     6   ar
    14     5     7    1
    15     7     8    1
    16     8     9    1
    17     9    10    1
    18    10    11    1
    19    10    12    2
    20     7    13    1
    21    13    14    1
    22    14    15    1
    23    15    16    1
    24    13    17    1
    25    17    18    1
    26    25    26   ar
    27    26    21   ar
    28     6     1   ar
    29    12     7    1
    30    16    13    1
    31    18     4    1
    32    11    19    1
    33    11    20    1
