@<TRIPOS>MOLECULE
*****
 35 38 0 0 0
SMALL
GASTEIGER

@<TRIPOS>ATOM
      1 C         141.9247  144.7766  164.0340 C.3     1  UNL1        0.0033
      2 C         140.8290  143.8283  163.6465 C.3     1  UNL1        0.0080
      3 C         140.4548  142.7003  164.5618 C.3     1  UNL1        0.0177
      4 C         139.3591  141.7520  164.1743 C.3     1  UNL1        0.0721
      5 N         138.6376  141.9316  162.8716 N.3     1  UNL1       -0.2716
      6 C         139.0117  143.0595  161.9563 C.3     1  UNL1        0.0776
      7 C         140.1075  144.0079  162.3438 C.3     1  UNL1        0.0525
      8 C         140.4816  145.1358  161.4285 C.2     1  UNL1        0.0513
      9 O         139.5968  146.3425  161.3249 O.co2   1  UNL1       -0.5491
     10 O         141.7406  145.0570  160.6168 O.co2   1  UNL1       -0.5491
     11 C         137.5419  140.9833  162.4841 C.3     1  UNL1        0.0842
     12 C         137.7825  139.9539  161.4199 C.3     1  UNL1        0.0800
     13 S         137.9524  138.5118  161.7960 S.3     1  UNL1       -0.1058
     14 C         139.0511  138.1055  162.7330 C.ar    1  UNL1        0.0546
     15 C         138.9269  137.9409  164.2188 C.ar    1  UNL1        0.0132
     16 C         140.2659  137.5262  164.7527 C.ar    1  UNL1        0.0080
     17 C         141.2177  137.4345  163.5969 C.ar    1  UNL1        0.0359
     18 S         140.4668  137.7926  162.3486 S.2     1  UNL1       -0.0802
     19 C         143.3555  144.4240  163.7540 C.3     1  UNL1        0.0339
     20 C         144.1447  143.6380  164.7588 C.3     1  UNL1        0.1350
     21 O         144.9193  144.3506  165.8275 O.3     1  UNL1       -0.3800
     22 H         144.8034  145.3084  165.7267 H       1  UNL1        0.2108
     23 C         142.2746  141.2265  168.0659 C.ar    1  UNL1        0.1388
     24 C         142.2891  139.7280  168.0019 C.ar    1  UNL1        0.0384
     25 C         142.9270  139.0333  166.8355 C.ar    1  UNL1        0.0222
     26 C         143.5504  139.8371  165.7332 C.ar    1  UNL1        0.0814
     27 N         144.1882  139.1423  164.5668 N.ar    1  UNL1       -0.2415
     28 C         144.8116  139.9461  163.4644 C.ar    1  UNL1        0.1281
     29 C         144.7971  141.4447  163.5284 C.ar    1  UNL1        0.1575
     30 F         145.4205  142.2485  162.4260 F       1  UNL1       -0.2028
     31 C         144.1592  142.1395  164.6948 C.ar    1  UNL1        0.0348
     32 C         143.5358  141.3356  165.7972 C.ar    1  UNL1        0.0212
     33 C         142.8979  142.0303  166.9635 C.ar    1  UNL1        0.0382
     34 C         141.9110  141.4478  170.6289 C.3     1  UNL1        0.2525
     35 O         141.6367  141.9213  169.2323 O.3     1  UNL1       -0.4714
@<TRIPOS>UNITY_ATOM_ATTR
9 1
charge -1
@<TRIPOS>BOND
     1    34    35    1
     2    35    23    1
     3    23    24   ar
     4    24    25   ar
     5    25    26   ar
     6    26    27   ar
     7    27    28   ar
     8    28    29   ar
     9    29    30    1
    10    29    31   ar
    11    31    20    1
    12    20    21    1
    13    20    19    1
    14    19     1    1
    15     2     1    1
    16     2     3    1
    17     3     4    1
    18     4     5    1
    19     5    11    1
    20    11    12    1
    21    12    13    1
    22    13    14    1
    23    14    15   ar
    24    15    16   ar
    25    16    17   ar
    26    17    18   ar
    27     5     6    1
    28     6     7    1
    29     7     8    1
    30     8     9   ar
    31     8    10   ar
    32    31    32   ar
    33    32    33   ar
    34    33    23   ar
    35    32    26   ar
    36     7     2    1
    37    18    14   ar
    38    21    22    1
@<TRIPOS>MOLECULE
*****
 35 38 0 0 0
SMALL
GASTEIGER

@<TRIPOS>ATOM
      1 C         141.4664  145.3984  163.2704 C.3     1  UNL1        0.0033
      2 C         142.4388  144.2666  163.4225 C.3     1  UNL1        0.0080
      3 C         143.1867  144.0883  164.7106 C.3     1  UNL1        0.0177
      4 C         144.1592  142.9565  164.8627 C.3     1  UNL1        0.0721
      5 N         144.3839  142.0029  163.7269 N.3     1  UNL1       -0.2716
      6 C         143.6361  142.1811  162.4389 C.3     1  UNL1        0.0776
      7 C         142.6635  143.3130  162.2867 C.3     1  UNL1        0.0525
      8 C         141.9157  143.4912  160.9987 C.2     1  UNL1        0.0513
      9 O         140.6624  142.7074  160.7446 O.co2   1  UNL1       -0.5491
     10 O         142.4213  144.4533  159.9648 O.co2   1  UNL1       -0.5491
     11 C         145.3563  140.8711  163.8791 C.3     1  UNL1        0.0842
     12 C         144.8574  139.4889  164.1805 C.3     1  UNL1        0.0800
     13 S         143.5683  139.3025  164.9244 S.3     1  UNL1       -0.1058
     14 C         142.3895  138.6789  164.2377 C.ar    1  UNL1        0.0546
     15 C         141.6541  137.4517  164.6886 C.ar    1  UNL1        0.0132
     16 C         140.5492  137.1874  163.7091 C.ar    1  UNL1        0.0080
     17 C         140.6018  138.2512  162.6528 C.ar    1  UNL1        0.0359
     18 S         141.7392  139.1730  162.9796 S.2     1  UNL1       -0.0802
     19 C         140.0001  145.1140  163.1328 C.3     1  UNL1        0.0339
     20 C         139.2329  144.5522  164.2930 C.3     1  UNL1        0.1350
     21 O         138.8082  145.4505  165.4167 O.3     1  UNL1       -0.3800
     22 H         139.1071  146.3557  165.2377 H       1  UNL1        0.2108
     23 C         140.8471  141.9444  167.5859 C.ar    1  UNL1        0.1388
     24 C         140.5048  140.4844  167.6224 C.ar    1  UNL1        0.0384
     25 C         139.6245  139.8937  166.5612 C.ar    1  UNL1        0.0222
     26 C         139.0864  140.7630  165.4636 C.ar    1  UNL1        0.0814
     27 N         138.2060  140.1723  164.4025 N.ar    1  UNL1       -0.2415
     28 C         137.6680  141.0416  163.3048 C.ar    1  UNL1        0.1281
     29 C         138.0103  142.5016  163.2683 C.ar    1  UNL1        0.1575
     30 F         137.4722  143.3709  162.1707 F       1  UNL1       -0.2028
     31 C         138.8906  143.0923  164.3295 C.ar    1  UNL1        0.0348
     32 C         139.4287  142.2229  165.4272 C.ar    1  UNL1        0.0212
     33 C         140.3091  142.8136  166.4883 C.ar    1  UNL1        0.0382
     34 C         141.1186  143.2805  169.7975 C.3     1  UNL1        0.2525
     35 O         141.7275  142.5350  168.6471 O.3     1  UNL1       -0.4714
@<TRIPOS>UNITY_ATOM_ATTR
9 1
charge -1
@<TRIPOS>BOND
     1    34    35    1
     2    35    23    1
     3    23    24   ar
     4    24    25   ar
     5    25    26   ar
     6    26    27   ar
     7    27    28   ar
     8    28    29   ar
     9    29    30    1
    10    29    31   ar
    11    31    20    1
    12    20    21    1
    13    20    19    1
    14    19     1    1
    15     2     1    1
    16     2     3    1
    17     3     4    1
    18     4     5    1
    19     5    11    1
    20    11    12    1
    21    12    13    1
    22    13    14    1
    23    14    15   ar
    24    15    16   ar
    25    16    17   ar
    26    17    18   ar
    27     5     6    1
    28     6     7    1
    29     7     8    1
    30     8     9   ar
    31     8    10   ar
    32    31    32   ar
    33    32    33   ar
    34    33    23   ar
    35    32    26   ar
    36     7     2    1
    37    18    14   ar
    38    21    22    1
@<TRIPOS>MOLECULE
*****
 35 38 0 0 0
SMALL
GASTEIGER

@<TRIPOS>ATOM
      1 C         137.5200  143.1296  163.1796 C.3     1  UNL1        0.0033
      2 C         138.2551  141.8287  163.0481 C.3     1  UNL1        0.0080
      3 C         138.0815  140.7608  164.0871 C.3     1  UNL1        0.0177
      4 C         138.8165  139.4599  163.9555 C.3     1  UNL1        0.0721
      5 N         139.7251  139.2269  162.7849 N.3     1  UNL1       -0.2716
      6 C         139.8987  140.2947  161.7460 C.3     1  UNL1        0.0776
      7 C         139.1636  141.5957  161.8775 C.3     1  UNL1        0.0525
      8 C         139.3372  142.6636  160.8385 C.2     1  UNL1        0.0513
      9 O         140.5906  143.4870  160.8115 O.co2   1  UNL1       -0.5491
     10 O         138.2572  142.9080  159.8266 O.co2   1  UNL1       -0.5491
     11 C         140.4601  137.9260  162.6534 C.3     1  UNL1        0.0842
     12 C         141.8710  137.8082  163.1491 C.3     1  UNL1        0.0800
     13 S         143.0129  138.2144  162.2653 S.3     1  UNL1       -0.1058
     14 C         143.9212  139.3337  162.6804 C.ar    1  UNL1        0.0546
     15 C         144.6670  139.4287  163.9783 C.ar    1  UNL1        0.0132
     16 C         145.4499  140.7082  163.9704 C.ar    1  UNL1        0.0080
     17 C         145.1879  141.4039  162.6675 C.ar    1  UNL1        0.0359
     18 S         144.2430  140.5544  161.8702 S.2     1  UNL1       -0.0802
     19 C         138.2848  144.4115  163.3272 C.3     1  UNL1        0.0339
     20 C         139.0875  144.6675  164.5683 C.3     1  UNL1        0.1350
     21 O         138.4332  145.2788  165.7717 O.3     1  UNL1       -0.3800
     22 H         137.4969  145.4456  165.5810 H       1  UNL1        0.2108
     23 C         140.5196  141.3218  167.2150 C.ar    1  UNL1        0.1388
     24 C         141.9764  140.9664  167.2526 C.ar    1  UNL1        0.0384
     25 C         142.9558  141.7263  166.4080 C.ar    1  UNL1        0.0222
     26 C         142.4784  142.8415  165.5258 C.ar    1  UNL1        0.0814
     27 N         143.4579  143.6014  164.6812 N.ar    1  UNL1       -0.2415
     28 C         142.9805  144.7166  163.7990 C.ar    1  UNL1        0.1281
     29 C         141.5237  145.0720  163.7613 C.ar    1  UNL1        0.1575
     30 F         141.0463  146.1872  162.8791 F       1  UNL1       -0.2028
     31 C         140.5442  144.3121  164.6059 C.ar    1  UNL1        0.0348
     32 C         141.0217  143.1968  165.4882 C.ar    1  UNL1        0.0212
     33 C         140.0422  142.4370  166.3328 C.ar    1  UNL1        0.0382
     34 C         139.5269  140.7521  169.5474 C.3     1  UNL1        0.2525
     35 O         139.5402  140.5619  168.0596 O.3     1  UNL1       -0.4714
@<TRIPOS>UNITY_ATOM_ATTR
9 1
charge -1
@<TRIPOS>BOND
     1    34    35    1
     2    35    23    1
     3    23    24   ar
     4    24    25   ar
     5    25    26   ar
     6    26    27   ar
     7    27    28   ar
     8    28    29   ar
     9    29    30    1
    10    29    31   ar
    11    31    20    1
    12    20    21    1
    13    20    19    1
    14    19     1    1
    15     2     1    1
    16     2     3    1
    17     3     4    1
    18     4     5    1
    19     5    11    1
    20    11    12    1
    21    12    13    1
    22    13    14    1
    23    14    15   ar
    24    15    16   ar
    25    16    17   ar
    26    17    18   ar
    27     5     6    1
    28     6     7    1
    29     7     8    1
    30     8     9   ar
    31     8    10   ar
    32    31    32   ar
    33    32    33   ar
    34    33    23   ar
    35    32    26   ar
    36     7     2    1
    37    18    14   ar
    38    21    22    1
@<TRIPOS>MOLECULE
*****
 35 38 0 0 0
SMALL
GASTEIGER

@<TRIPOS>ATOM
      1 C         141.9033  144.6198  164.2149 C.3     1  UNL1        0.0033
      2 C         142.4905  143.3917  163.5850 C.3     1  UNL1        0.0080
      3 C         142.0087  142.9354  162.2397 C.3     1  UNL1        0.0177
      4 C         142.5959  141.7072  161.6098 C.3     1  UNL1        0.0721
      5 N         143.6648  140.9353  162.3251 N.3     1  UNL1       -0.2716
      6 C         144.1465  141.3916  163.6703 C.3     1  UNL1        0.0776
      7 C         143.5594  142.6198  164.3003 C.3     1  UNL1        0.0525
      8 C         144.0411  143.0761  165.6455 C.2     1  UNL1        0.0513
      9 O         143.4881  142.4509  166.8918 O.co2   1  UNL1       -0.5491
     10 O         145.0758  144.1576  165.7444 O.co2   1  UNL1       -0.5491
     11 C         144.2520  139.7072  161.6952 C.3     1  UNL1        0.0842
     12 C         143.7221  138.3516  162.0582 C.3     1  UNL1        0.0800
     13 S         142.6131  138.2235  163.0600 S.3     1  UNL1       -0.1058
     14 C         141.1939  138.0852  162.5943 C.ar    1  UNL1        0.0546
     15 C         140.0438  137.5747  163.4108 C.ar    1  UNL1        0.0132
     16 C         138.8148  137.6071  162.5515 C.ar    1  UNL1        0.0080
     17 C         139.2053  138.1376  161.2038 C.ar    1  UNL1        0.0359
     18 S         140.6758  138.4331  161.2303 S.2     1  UNL1       -0.0802
     19 C         140.5191  145.0637  163.8450 C.3     1  UNL1        0.0339
     20 C         139.3399  144.5808  164.6365 C.3     1  UNL1        0.1350
     21 O         138.6826  145.4893  165.6328 O.3     1  UNL1       -0.3800
     22 H         139.1396  146.3448  165.6410 H       1  UNL1        0.2108
     23 C         140.2447  141.3712  167.6580 C.ar    1  UNL1        0.1388
     24 C         139.7230  139.9799  167.4533 C.ar    1  UNL1        0.0384
     25 C         138.8996  139.6584  166.2414 C.ar    1  UNL1        0.0222
     26 C         138.5980  140.7283  165.2342 C.ar    1  UNL1        0.0814
     27 N         137.7747  140.4068  164.0223 N.ar    1  UNL1       -0.2415
     28 C         137.4731  141.4766  163.0151 C.ar    1  UNL1        0.1281
     29 C         137.9948  142.8680  163.2199 C.ar    1  UNL1        0.1575
     30 F         137.6932  143.9379  162.2127 F       1  UNL1       -0.2028
     31 C         138.8182  143.1895  164.4318 C.ar    1  UNL1        0.0348
     32 C         139.1198  142.1196  165.4390 C.ar    1  UNL1        0.0212
     33 C         139.9431  142.4410  166.6509 C.ar    1  UNL1        0.0382
     34 C         140.7217  142.8799  169.7186 C.3     1  UNL1        0.2525
     35 O         141.0681  141.6926  168.8700 O.3     1  UNL1       -0.4714
@<TRIPOS>UNITY_ATOM_ATTR
9 1
charge -1
@<TRIPOS>BOND
     1    34    35    1
     2    35    23    1
     3    23    24   ar
     4    24    25   ar
     5    25    26   ar
     6    26    27   ar
     7    27    28   ar
     8    28    29   ar
     9    29    30    1
    10    29    31   ar
    11    31    20    1
    12    20    21    1
    13    20    19    1
    14    19     1    1
    15     2     1    1
    16     2     3    1
    17     3     4    1
    18     4     5    1
    19     5    11    1
    20    11    12    1
    21    12    13    1
    22    13    14    1
    23    14    15   ar
    24    15    16   ar
    25    16    17   ar
    26    17    18   ar
    27     5     6    1
    28     6     7    1
    29     7     8    1
    30     8     9   ar
    31     8    10   ar
    32    31    32   ar
    33    32    33   ar
    34    33    23   ar
    35    32    26   ar
    36     7     2    1
    37    18    14   ar
    38    21    22    1
@<TRIPOS>MOLECULE
*****
 35 38 0 0 0
SMALL
GASTEIGER

@<TRIPOS>ATOM
      1 C         140.2885  137.4746  164.8338 C.3     1  UNL1        0.0033
      2 C         141.3825  138.4748  164.6048 C.3     1  UNL1        0.0080
      3 C         142.3591  138.7825  165.7011 C.3     1  UNL1        0.0177
      4 C         143.4531  139.7827  165.4721 C.3     1  UNL1        0.0721
      5 N         143.5707  140.4753  164.1468 N.3     1  UNL1       -0.2716
      6 C         142.5943  140.1677  163.0505 C.3     1  UNL1        0.0776
      7 C         141.5001  139.1675  163.2795 C.3     1  UNL1        0.0525
      8 C         140.5236  138.8599  162.1832 C.2     1  UNL1        0.0513
      9 O         139.5849  139.9230  161.6950 O.co2   1  UNL1       -0.5491
     10 O         140.4859  137.4891  161.5753 O.co2   1  UNL1       -0.5491
     11 C         144.6648  141.4756  163.9177 C.3     1  UNL1        0.0842
     12 C         145.0671  141.8401  162.5193 C.3     1  UNL1        0.0800
     13 S         144.7197  143.1907  161.9670 S.3     1  UNL1       -0.1058
     14 C         143.5204  143.9274  162.4857 C.ar    1  UNL1        0.0546
     15 C         143.5061  144.8889  163.6369 C.ar    1  UNL1        0.0132
     16 C         142.1017  145.3876  163.8069 C.ar    1  UNL1        0.0080
     17 C         141.2479  144.7343  162.7607 C.ar    1  UNL1        0.0359
     18 S         142.1248  143.8318  161.9441 S.2     1  UNL1       -0.0802
     19 C         138.8533  137.9071  164.7785 C.3     1  UNL1        0.0339
     20 C         138.3181  138.8634  165.8028 C.3     1  UNL1        0.1350
     21 O         137.3506  138.3835  166.8438 O.3     1  UNL1       -0.3800
     22 H         137.1783  137.4378  166.7135 H       1  UNL1        0.2108
     23 C         140.9633  140.4550  169.0770 C.ar    1  UNL1        0.1388
     24 C         141.3956  141.8912  169.0603 C.ar    1  UNL1        0.0384
     25 C         140.9462  142.7969  167.9522 C.ar    1  UNL1        0.0222
     26 C         140.0646  142.2664  166.8608 C.ar    1  UNL1        0.0814
     27 N         139.6152  143.1721  165.7528 N.ar    1  UNL1       -0.2415
     28 C         138.7335  142.6416  164.6614 C.ar    1  UNL1        0.1281
     29 C         138.3011  141.2053  164.6781 C.ar    1  UNL1        0.1575
     30 F         137.4194  140.6748  163.5867 F       1  UNL1       -0.2028
     31 C         138.7505  140.2996  165.7861 C.ar    1  UNL1        0.0348
     32 C         139.6322  140.8302  166.8775 C.ar    1  UNL1        0.0212
     33 C         140.0816  139.9245  167.9856 C.ar    1  UNL1        0.0382
     34 C         142.6280  138.6891  170.0043 C.3     1  UNL1        0.2525
     35 O         141.4126  139.5493  170.1850 O.3     1  UNL1       -0.4714
@<TRIPOS>UNITY_ATOM_ATTR
9 1
charge -1
@<TRIPOS>BOND
     1    34    35    1
     2    35    23    1
     3    23    24   ar
     4    24    25   ar
     5    25    26   ar
     6    26    27   ar
     7    27    28   ar
     8    28    29   ar
     9    29    30    1
    10    29    31   ar
    11    31    20    1
    12    20    21    1
    13    20    19    1
    14    19     1    1
    15     2     1    1
    16     2     3    1
    17     3     4    1
    18     4     5    1
    19     5    11    1
    20    11    12    1
    21    12    13    1
    22    13    14    1
    23    14    15   ar
    24    15    16   ar
    25    16    17   ar
    26    17    18   ar
    27     5     6    1
    28     6     7    1
    29     7     8    1
    30     8     9   ar
    31     8    10   ar
    32    31    32   ar
    33    32    33   ar
    34    33    23   ar
    35    32    26   ar
    36     7     2    1
    37    18    14   ar
    38    21    22    1
@<TRIPOS>MOLECULE
*****
 35 38 0 0 0
SMALL
GASTEIGER

@<TRIPOS>ATOM
      1 C         145.0841  140.9468  164.2831 C.3     1  UNL1        0.0033
      2 C         144.0242  141.8522  163.7293 C.3     1  UNL1        0.0080
      3 C         143.4513  141.5913  162.3677 C.3     1  UNL1        0.0177
      4 C         142.3914  142.4967  161.8139 C.3     1  UNL1        0.0721
      5 N         141.9043  143.6631  162.6215 N.3     1  UNL1       -0.2716
      6 C         142.4771  143.9240  163.9830 C.3     1  UNL1        0.0776
      7 C         143.5371  143.0186  164.5369 C.3     1  UNL1        0.0525
      8 C         144.1099  143.2796  165.8984 C.2     1  UNL1        0.0513
      9 O         143.5333  142.5903  167.0994 O.co2   1  UNL1       -0.5491
     10 O         145.2593  144.2299  166.0590 O.co2   1  UNL1       -0.5491
     11 C         140.8444  144.5685  162.0677 C.3     1  UNL1        0.0842
     12 C         139.8352  145.1915  162.9861 C.3     1  UNL1        0.0800
     13 S         138.4102  144.7240  162.9625 S.3     1  UNL1       -0.1058
     14 C         138.1022  143.2645  162.8034 C.ar    1  UNL1        0.0546
     15 C         137.7006  142.3234  163.9002 C.ar    1  UNL1        0.0132
     16 C         137.4920  140.9673  163.2941 C.ar    1  UNL1        0.0080
     17 C         137.7646  141.0703  161.8226 C.ar    1  UNL1        0.0359
     18 S         138.1418  142.4901  161.5193 S.2     1  UNL1       -0.0802
     19 C         144.9171  139.4585  164.2006 C.3     1  UNL1        0.0339
     20 C         143.9910  138.7540  165.1473 C.3     1  UNL1        0.1350
     21 O         144.5245  138.1653  166.4196 O.3     1  UNL1       -0.3800
     22 H         145.4793  138.3271  166.4753 H       1  UNL1        0.2108
     23 C         140.9050  140.0568  168.1522 C.ar    1  UNL1        0.1388
     24 C         139.4454  139.9411  167.8265 C.ar    1  UNL1        0.0384
     25 C         139.0144  139.3911  166.4992 C.ar    1  UNL1        0.0222
     26 C         140.0430  138.9568  165.4976 C.ar    1  UNL1        0.0814
     27 N         139.6120  138.4068  164.1703 N.ar    1  UNL1       -0.2415
     28 C         140.6407  137.9725  163.1687 C.ar    1  UNL1        0.1281
     29 C         142.1004  138.0883  163.4943 C.ar    1  UNL1        0.1575
     30 F         143.1290  137.6540  162.4927 F       1  UNL1       -0.2028
     31 C         142.5314  138.6383  164.8216 C.ar    1  UNL1        0.0348
     32 C         141.5026  139.0725  165.8233 C.ar    1  UNL1        0.0212
     33 C         141.9336  139.6225  167.1506 C.ar    1  UNL1        0.0382
     34 C         140.3738  140.6300  170.6299 C.3     1  UNL1        0.2525
     35 O         141.3360  140.6068  169.4795 O.3     1  UNL1       -0.4714
@<TRIPOS>UNITY_ATOM_ATTR
9 1
charge -1
@<TRIPOS>BOND
     1    34    35    1
     2    35    23    1
     3    23    24   ar
     4    24    25   ar
     5    25    26   ar
     6    26    27   ar
     7    27    28   ar
     8    28    29   ar
     9    29    30    1
    10    29    31   ar
    11    31    20    1
    12    20    21    1
    13    20    19    1
    14    19     1    1
    15     2     1    1
    16     2     3    1
    17     3     4    1
    18     4     5    1
    19     5    11    1
    20    11    12    1
    21    12    13    1
    22    13    14    1
    23    14    15   ar
    24    15    16   ar
    25    16    17   ar
    26    17    18   ar
    27     5     6    1
    28     6     7    1
    29     7     8    1
    30     8     9   ar
    31     8    10   ar
    32    31    32   ar
    33    32    33   ar
    34    33    23   ar
    35    32    26   ar
    36     7     2    1
    37    18    14   ar
    38    21    22    1
@<TRIPOS>MOLECULE
*****
 35 38 0 0 0
SMALL
GASTEIGER

@<TRIPOS>ATOM
      1 C         142.1634  144.9782  164.0678 C.3     1  UNL1        0.0033
      2 C         141.2906  144.0968  163.2244 C.3     1  UNL1        0.0080
      3 C         141.7275  143.7101  161.8425 C.3     1  UNL1        0.0177
      4 C         140.8548  142.8287  160.9991 C.3     1  UNL1        0.0721
      5 N         139.5451  142.3339  161.5376 N.3     1  UNL1       -0.2716
      6 C         139.1082  142.7205  162.9195 C.3     1  UNL1        0.0776
      7 C         139.9810  143.6019  163.7629 C.3     1  UNL1        0.0525
      8 C         139.5441  143.9885  165.1448 C.2     1  UNL1        0.0513
      9 O         138.6514  145.1774  165.3440 O.co2   1  UNL1       -0.5491
     10 O         139.9999  143.1863  166.3274 O.co2   1  UNL1       -0.5491
     11 C         138.6724  141.4524  160.6942 C.3     1  UNL1        0.0842
     12 C         138.7866  139.9606  160.8013 C.3     1  UNL1        0.0800
     13 S         137.9692  139.2167  161.8153 S.3     1  UNL1       -0.1058
     14 C         138.5895  138.7924  163.1135 C.ar    1  UNL1        0.0546
     15 C         139.5023  137.6189  163.3126 C.ar    1  UNL1        0.0132
     16 C         139.8828  137.5684  164.7627 C.ar    1  UNL1        0.0080
     17 C         139.2052  138.7107  165.4598 C.ar    1  UNL1        0.0359
     18 S         138.4059  139.4673  164.4405 S.2     1  UNL1       -0.0802
     19 C         143.6557  144.8431  163.9986 C.3     1  UNL1        0.0339
     20 C         144.3601  143.8487  164.8734 C.3     1  UNL1        0.1350
     21 O         145.2190  144.3237  166.0077 O.3     1  UNL1       -0.3800
     22 H         145.2106  145.2933  166.0357 H       1  UNL1        0.2108
     23 C         142.4779  141.1998  167.9864 C.ar    1  UNL1        0.1388
     24 C         142.3233  139.7306  167.7269 C.ar    1  UNL1        0.0384
     25 C         142.7961  139.1443  166.4297 C.ar    1  UNL1        0.0222
     26 C         143.4235  140.0272  165.3920 C.ar    1  UNL1        0.0814
     27 N         143.8964  139.4409  164.0949 N.ar    1  UNL1       -0.2415
     28 C         144.5238  140.3238  163.0572 C.ar    1  UNL1        0.1281
     29 C         144.6783  141.7932  163.3167 C.ar    1  UNL1        0.1575
     30 F         145.3057  142.6761  162.2791 F       1  UNL1       -0.2028
     31 C         144.2055  142.3795  164.6139 C.ar    1  UNL1        0.0348
     32 C         143.5781  141.4965  165.6516 C.ar    1  UNL1        0.0212
     33 C         143.1052  142.0828  166.9487 C.ar    1  UNL1        0.0382
     34 C         140.5359  141.8999  169.5639 C.3     1  UNL1        0.2525
     35 O         142.0050  141.7861  169.2836 O.3     1  UNL1       -0.4714
@<TRIPOS>UNITY_ATOM_ATTR
9 1
charge -1
@<TRIPOS>BOND
     1    34    35    1
     2    35    23    1
     3    23    24   ar
     4    24    25   ar
     5    25    26   ar
     6    26    27   ar
     7    27    28   ar
     8    28    29   ar
     9    29    30    1
    10    29    31   ar
    11    31    20    1
    12    20    21    1
    13    20    19    1
    14    19     1    1
    15     2     1    1
    16     2     3    1
    17     3     4    1
    18     4     5    1
    19     5    11    1
    20    11    12    1
    21    12    13    1
    22    13    14    1
    23    14    15   ar
    24    15    16   ar
    25    16    17   ar
    26    17    18   ar
    27     5     6    1
    28     6     7    1
    29     7     8    1
    30     8     9   ar
    31     8    10   ar
    32    31    32   ar
    33    32    33   ar
    34    33    23   ar
    35    32    26   ar
    36     7     2    1
    37    18    14   ar
    38    21    22    1
@<TRIPOS>MOLECULE
*****
 35 38 0 0 0
SMALL
GASTEIGER

@<TRIPOS>ATOM
      1 C         145.1436  141.9728  162.9577 C.3     1  UNL1        0.0033
      2 C         144.0643  141.0099  162.5608 C.3     1  UNL1        0.0080
      3 C         143.8282  139.7712  163.3733 C.3     1  UNL1        0.0177
      4 C         142.7489  138.8082  162.9763 C.3     1  UNL1        0.0721
      5 N         141.9055  139.0838  161.7669 N.3     1  UNL1       -0.2716
      6 C         142.1415  140.3224  160.9543 C.3     1  UNL1        0.0776
      7 C         143.2209  141.2854  161.3513 C.3     1  UNL1        0.0525
      8 C         143.4569  142.5240  160.5388 C.2     1  UNL1        0.0513
      9 O         142.5453  143.7055  160.6905 O.co2   1  UNL1       -0.5491
     10 O         144.6046  142.5811  159.5746 O.co2   1  UNL1       -0.5491
     11 C         140.8262  138.1209  161.3699 C.3     1  UNL1        0.0842
     12 C         139.6304  137.9281  162.2548 C.3     1  UNL1        0.0800
     13 S         138.3150  138.5459  161.8832 S.3     1  UNL1       -0.1058
     14 C         138.0936  140.0159  162.0833 C.ar    1  UNL1        0.0546
     15 C         137.5844  140.6687  163.3341 C.ar    1  UNL1        0.0132
     16 C         137.5187  142.1475  163.0914 C.ar    1  UNL1        0.0080
     17 C         137.9873  142.4087  161.6906 C.ar    1  UNL1        0.0359
     18 S         138.3426  141.0912  161.0675 S.2     1  UNL1       -0.0802
     19 C         145.4387  142.2121  164.4088 C.3     1  UNL1        0.0339
     20 C         144.6405  143.2211  165.1800 C.3     1  UNL1        0.1350
     21 O         145.3378  144.2112  166.0652 O.3     1  UNL1       -0.3800
     22 H         146.2955  144.0627  166.0246 H       1  UNL1        0.2108
     23 C         142.1679  140.2820  167.5248 C.ar    1  UNL1        0.1388
     24 C         140.6724  140.3009  167.4109 C.ar    1  UNL1        0.0384
     25 C         140.0011  141.2996  166.5154 C.ar    1  UNL1        0.0222
     26 C         140.8252  142.2793  165.7338 C.ar    1  UNL1        0.0814
     27 N         140.1538  143.2780  164.8383 N.ar    1  UNL1       -0.2415
     28 C         140.9780  144.2577  164.0567 C.ar    1  UNL1        0.1281
     29 C         142.4736  144.2387  164.1706 C.ar    1  UNL1        0.1575
     30 F         143.2977  145.2185  163.3890 F       1  UNL1       -0.2028
     31 C         143.1449  143.2401  165.0661 C.ar    1  UNL1        0.0348
     32 C         142.3207  142.2603  165.8477 C.ar    1  UNL1        0.0212
     33 C         142.9921  141.2617  166.7432 C.ar    1  UNL1        0.0382
     34 C         142.4162  139.1578  169.8539 C.3     1  UNL1        0.2525
     35 O         142.8393  139.2833  168.4203 O.3     1  UNL1       -0.4714
@<TRIPOS>UNITY_ATOM_ATTR
9 1
charge -1
@<TRIPOS>BOND
     1    34    35    1
     2    35    23    1
     3    23    24   ar
     4    24    25   ar
     5    25    26   ar
     6    26    27   ar
     7    27    28   ar
     8    28    29   ar
     9    29    30    1
    10    29    31   ar
    11    31    20    1
    12    20    21    1
    13    20    19    1
    14    19     1    1
    15     2     1    1
    16     2     3    1
    17     3     4    1
    18     4     5    1
    19     5    11    1
    20    11    12    1
    21    12    13    1
    22    13    14    1
    23    14    15   ar
    24    15    16   ar
    25    16    17   ar
    26    17    18   ar
    27     5     6    1
    28     6     7    1
    29     7     8    1
    30     8     9   ar
    31     8    10   ar
    32    31    32   ar
    33    32    33   ar
    34    33    23   ar
    35    32    26   ar
    36     7     2    1
    37    18    14   ar
    38    21    22    1
@<TRIPOS>MOLECULE
*****
 35 38 0 0 0
SMALL
GASTEIGER

@<TRIPOS>ATOM
      1 C         137.7869  142.0489  164.7159 C.3     1  UNL1        0.0033
      2 C         138.2780  141.1095  163.6546 C.3     1  UNL1        0.0080
      3 C         138.2360  141.5194  162.2123 C.3     1  UNL1        0.0177
      4 C         138.7271  140.5800  161.1510 C.3     1  UNL1        0.0721
      5 N         139.2603  139.2308  161.5320 N.3     1  UNL1       -0.2716
      6 C         139.3024  138.8209  162.9743 C.3     1  UNL1        0.0776
      7 C         138.8112  139.7603  164.0356 C.3     1  UNL1        0.0525
      8 C         138.8533  139.3504  165.4779 C.2     1  UNL1        0.0513
      9 O         137.5883  138.9629  166.1846 O.co2   1  UNL1       -0.5491
     10 O         140.1604  139.3279  166.2134 O.co2   1  UNL1       -0.5491
     11 C         139.7514  138.2914  160.4707 C.3     1  UNL1        0.0842
     12 C         140.9071  138.6834  159.5985 C.3     1  UNL1        0.0800
     13 S         142.2914  138.2109  159.9305 S.3     1  UNL1       -0.1058
     14 C         143.0224  138.7951  161.1029 C.ar    1  UNL1        0.0546
     15 C         142.9986  138.2697  162.5076 C.ar    1  UNL1        0.0132
     16 C         143.8669  139.1572  163.3492 C.ar    1  UNL1        0.0080
     17 C         144.4274  140.2312  162.4646 C.ar    1  UNL1        0.0359
     18 S         143.9054  140.0074  161.0762 S.2     1  UNL1       -0.0802
     19 C         137.6607  143.5141  164.4205 C.3     1  UNL1        0.0339
     20 C         138.7372  144.4628  164.8577 C.3     1  UNL1        0.1350
     21 O         138.4485  145.4907  165.9113 O.3     1  UNL1       -0.3800
     22 H         137.5268  145.4061  166.2016 H       1  UNL1        0.2108
     23 C         142.0136  142.1795  166.9318 C.ar    1  UNL1        0.1388
     24 C         143.3787  142.1004  166.3153 C.ar    1  UNL1        0.0384
     25 C         143.6518  142.7823  165.0074 C.ar    1  UNL1        0.0222
     26 C         142.5597  143.5434  164.3161 C.ar    1  UNL1        0.0814
     27 N         142.8327  144.2253  163.0082 N.ar    1  UNL1       -0.2415
     28 C         141.7406  144.9864  162.3169 C.ar    1  UNL1        0.1281
     29 C         140.3754  145.0656  162.9334 C.ar    1  UNL1        0.1575
     30 F         139.2833  145.8267  162.2420 F       1  UNL1       -0.2028
     31 C         140.1023  144.3837  164.2412 C.ar    1  UNL1        0.0348
     32 C         141.1945  143.6225  164.9326 C.ar    1  UNL1        0.0212
     33 C         140.9215  142.9406  166.2404 C.ar    1  UNL1        0.0382
     34 C         142.8772  141.1404  169.1508 C.3     1  UNL1        0.2525
     35 O         141.7406  141.4976  168.2396 O.3     1  UNL1       -0.4714
@<TRIPOS>UNITY_ATOM_ATTR
9 1
charge -1
@<TRIPOS>BOND
     1    34    35    1
     2    35    23    1
     3    23    24   ar
     4    24    25   ar
     5    25    26   ar
     6    26    27   ar
     7    27    28   ar
     8    28    29   ar
     9    29    30    1
    10    29    31   ar
    11    31    20    1
    12    20    21    1
    13    20    19    1
    14    19     1    1
    15     2     1    1
    16     2     3    1
    17     3     4    1
    18     4     5    1
    19     5    11    1
    20    11    12    1
    21    12    13    1
    22    13    14    1
    23    14    15   ar
    24    15    16   ar
    25    16    17   ar
    26    17    18   ar
    27     5     6    1
    28     6     7    1
    29     7     8    1
    30     8     9   ar
    31     8    10   ar
    32    31    32   ar
    33    32    33   ar
    34    33    23   ar
    35    32    26   ar
    36     7     2    1
    37    18    14   ar
    38    21    22    1
