@<TRIPOS>MOLECULE
*****
 35 39 0 0 0
SMALL
GASTEIGER

@<TRIPOS>ATOM
      1 N         142.9435  138.4359  162.9506 N.3     1  UNL1       -0.2720
      2 C         141.5298  137.9459  163.0575 C.3     1  UNL1        0.0768
      3 C         140.5226  138.2235  164.1339 C.3     1  UNL1        0.0434
      4 C         140.6803  139.0597  165.3691 C.ar    1  UNL1       -0.0231
      5 C         139.4216  139.0750  166.1849 C.ar    1  UNL1       -0.0013
      6 C         139.3669  139.8554  167.4648 C.ar    1  UNL1        0.0388
      7 C         140.5707  140.6205  167.9289 C.ar    1  UNL1        0.1643
      8 O         140.8127  141.4738  169.1385 O.2     1  UNL1       -0.4317
      9 C         142.2210  141.9859  169.0703 C.ar    1  UNL1        0.3031
     10 N         142.8494  141.4491  167.8185 N.ar    1  UNL1       -0.2053
     11 C         141.8294  140.6052  167.1130 C.ar    1  UNL1        0.1145
     12 C         141.8842  139.8248  165.8332 C.ar    1  UNL1       -0.0039
     13 C         143.2277  139.9427  165.1765 C.3     1  UNL1        0.0450
     14 C         143.6991  139.3245  163.8937 C.3     1  UNL1        0.0769
     15 C         142.8844  142.8782  170.0771 C.3     1  UNL1        0.4696
     16 F         143.5480  143.7704  171.0839 F       1  UNL1       -0.1619
     17 F         141.6325  143.6986  170.1750 F       1  UNL1       -0.1619
     18 F         144.1364  142.0577  169.9791 F       1  UNL1       -0.1619
     19 C         143.7018  137.9765  161.7407 C.3     1  UNL1        0.0730
     20 C         142.9615  137.5735  160.5000 C.3     1  UNL1        0.0294
     21 C         142.9691  138.4703  159.2975 C.3     1  UNL1        0.0666
     22 S         141.7000  139.1303  158.8461 S.3     1  UNL1       -0.0756
     23 C         139.5638  140.8553  161.5896 C.ar    1  UNL1        0.1683
     24 N         138.6942  139.6845  161.2384 N.ar    1  UNL1       -0.1282
     25 N         139.3886  138.8959  160.1680 N.ar    1  UNL1       -0.1221
     26 C         140.6874  139.5792  159.8576 C.ar    1  UNL1        0.1932
     27 N         140.7956  140.7901  160.7362 N.ar    1  UNL1       -0.2884
     28 C         141.9357  141.7648  160.7576 C.3     1  UNL1        0.1340
     29 C         138.3314  145.0601  165.6883 C.3     1  UNL1        0.0521
     30 C         138.6395  144.0089  164.6636 C.ar    1  UNL1        0.0594
     31 C         139.8536  143.1420  164.8202 C.ar    1  UNL1        0.0148
     32 C         140.1617  142.0908  163.7955 C.ar    1  UNL1        0.0058
     33 C         139.2558  141.9064  162.6142 C.ar    1  UNL1        0.0551
     34 C         138.0417  142.7733  162.4578 C.ar    1  UNL1        0.1015
     35 N         137.7336  143.8246  163.4825 N.ar    1  UNL1       -0.2480
@<TRIPOS>BOND
     1    29    30    1
     2    30    31   ar
     3    31    32   ar
     4    32    33   ar
     5    33    23    1
     6    23    24   ar
     7    24    25   ar
     8    25    26   ar
     9    26    22    1
    10    22    21    1
    11    21    20    1
    12    20    19    1
    13    19     1    1
    14     1     2    1
    15     2     3    1
    16     3     4    1
    17     4     5   ar
    18     5     6   ar
    19     6     7   ar
    20     7     8   ar
    21     8     9   ar
    22     9    15    1
    23    15    16    1
    24    15    17    1
    25    15    18    1
    26     9    10   ar
    27    10    11   ar
    28    11    12   ar
    29    12    13    1
    30    13    14    1
    31    26    27   ar
    32    27    28    1
    33    33    34   ar
    34    34    35   ar
    35    35    30   ar
    36    27    23   ar
    37    14     1    1
    38    12     4   ar
    39    11     7   ar
@<TRIPOS>MOLECULE
*****
 35 39 0 0 0
SMALL
GASTEIGER

@<TRIPOS>ATOM
      1 N         138.9912  144.3000  163.1736 N.3     1  UNL1       -0.2720
      2 C         138.1247  143.1661  162.7114 C.3     1  UNL1        0.0768
      3 C         137.8903  141.8393  163.3707 C.3     1  UNL1        0.0434
      4 C         138.4643  141.3188  164.6550 C.ar    1  UNL1       -0.0231
      5 C         137.9687  139.9353  164.9558 C.ar    1  UNL1       -0.0013
      6 C         138.4234  139.2295  166.1988 C.ar    1  UNL1        0.0388
      7 C         139.3737  139.9071  167.1410 C.ar    1  UNL1        0.1643
      8 O         139.9921  139.4641  168.4338 O.2     1  UNL1       -0.4317
      9 C         140.8698  140.5738  168.9321 C.ar    1  UNL1        0.3031
     10 N         140.7940  141.7026  167.9472 N.ar    1  UNL1       -0.2053
     11 C         139.8693  141.2906  166.8402 C.ar    1  UNL1        0.1145
     12 C         139.4146  141.9964  165.5972 C.ar    1  UNL1       -0.0039
     13 C         140.0256  143.3619  165.4878 C.3     1  UNL1        0.0450
     14 C         139.8371  144.3871  164.4092 C.3     1  UNL1        0.0769
     15 C         141.6810  140.5575  170.1937 C.3     1  UNL1        0.4696
     16 F         142.4922  140.5412  171.4554 F       1  UNL1       -0.1619
     17 F         141.6527  142.0567  170.2312 F       1  UNL1       -0.1619
     18 F         141.7093  139.0582  170.1562 F       1  UNL1       -0.1619
     19 C         139.0148  145.5062  162.2823 C.3     1  UNL1        0.0730
     20 C         140.2699  145.8703  161.5460 C.3     1  UNL1        0.0294
     21 C         140.4408  145.4687  160.1108 C.3     1  UNL1        0.0666
     22 S         141.2973  144.2886  159.7592 S.3     1  UNL1       -0.0756
     23 C         141.4677  141.3059  162.2371 C.ar    1  UNL1        0.1683
     24 N         140.4845  140.7893  161.2289 N.ar    1  UNL1       -0.1282
     25 N         140.3010  141.8438  160.1780 N.ar    1  UNL1       -0.1221
     26 C         141.1708  143.0120  160.5367 C.ar    1  UNL1        0.1932
     27 N         141.8918  142.6795  161.8093 N.ar    1  UNL1       -0.2884
     28 C         142.8661  143.5653  162.5279 C.3     1  UNL1        0.1340
     29 C         143.3700  138.3893  167.1233 C.3     1  UNL1        0.0521
     30 C         142.8944  139.1185  165.9017 C.ar    1  UNL1        0.0594
     31 C         141.9346  138.4555  164.9587 C.ar    1  UNL1        0.0148
     32 C         141.4591  139.1846  163.7372 C.ar    1  UNL1        0.0058
     33 C         141.9433  140.5768  163.4586 C.ar    1  UNL1        0.0551
     34 C         142.9030  141.2396  164.4017 C.ar    1  UNL1        0.1015
     35 N         143.3786  140.5105  165.6232 N.ar    1  UNL1       -0.2480
@<TRIPOS>BOND
     1    29    30    1
     2    30    31   ar
     3    31    32   ar
     4    32    33   ar
     5    33    23    1
     6    23    24   ar
     7    24    25   ar
     8    25    26   ar
     9    26    22    1
    10    22    21    1
    11    21    20    1
    12    20    19    1
    13    19     1    1
    14     1     2    1
    15     2     3    1
    16     3     4    1
    17     4     5   ar
    18     5     6   ar
    19     6     7   ar
    20     7     8   ar
    21     8     9   ar
    22     9    15    1
    23    15    16    1
    24    15    17    1
    25    15    18    1
    26     9    10   ar
    27    10    11   ar
    28    11    12   ar
    29    12    13    1
    30    13    14    1
    31    26    27   ar
    32    27    28    1
    33    33    34   ar
    34    34    35   ar
    35    35    30   ar
    36    27    23   ar
    37    14     1    1
    38    12     4   ar
    39    11     7   ar
@<TRIPOS>MOLECULE
*****
 35 39 0 0 0
SMALL
GASTEIGER

@<TRIPOS>ATOM
      1 N         144.3755  142.1422  162.6120 N.3     1  UNL1       -0.2720
      2 C         144.7875  140.7092  162.7762 C.3     1  UNL1        0.0768
      3 C         144.4908  139.7751  163.9118 C.3     1  UNL1        0.0434
      4 C         143.7091  140.0433  165.1635 C.ar    1  UNL1       -0.0231
      5 C         143.6506  138.8300  166.0437 C.ar    1  UNL1       -0.0013
      6 C         142.9140  138.8852  167.3491 C.ar    1  UNL1        0.0388
      7 C         142.2357  140.1537  167.7745 C.ar    1  UNL1        0.1643
      8 O         141.4408  140.5056  168.9969 O.2     1  UNL1       -0.4317
      9 C         141.0079  141.9364  168.8722 C.ar    1  UNL1        0.3031
     10 N         141.5353  142.4688  167.5728 N.ar    1  UNL1       -0.2053
     11 C         142.2942  141.3670  166.8944 C.ar    1  UNL1        0.1145
     12 C         143.0308  141.3117  165.5889 C.ar    1  UNL1       -0.0039
     13 C         142.9668  142.6254  164.8676 C.3     1  UNL1        0.0450
     14 C         143.5653  142.9949  163.5427 C.3     1  UNL1        0.0769
     15 C         140.1910  142.7007  169.8715 C.3     1  UNL1        0.4696
     16 F         139.3740  143.4649  170.8708 F       1  UNL1       -0.1619
     17 F         141.1376  143.8588  169.7596 F       1  UNL1       -0.1619
     18 F         139.2443  141.5425  169.9834 F       1  UNL1       -0.1619
     19 C         144.8346  142.8107  161.3501 C.3     1  UNL1        0.0730
     20 C         143.9766  142.7623  160.1207 C.3     1  UNL1        0.0294
     21 C         143.9125  141.5084  159.2998 C.3     1  UNL1        0.0666
     22 S         142.6372  140.7217  159.2305 S.3     1  UNL1       -0.0756
     23 C         141.1521  138.9861  162.3686 C.ar    1  UNL1        0.1683
     24 N         142.1149  137.9412  161.8878 N.ar    1  UNL1       -0.1282
     25 N         142.7884  138.4642  160.6538 N.ar    1  UNL1       -0.1221
     26 C         142.2418  139.8323  160.3719 C.ar    1  UNL1        0.1932
     27 N         141.2306  140.1549  161.4317 N.ar    1  UNL1       -0.2884
     28 C         140.4371  141.4236  161.5363 C.3     1  UNL1        0.1340
     29 C         137.6091  138.5647  167.1924 C.3     1  UNL1        0.0521
     30 C         138.4948  138.6701  165.9865 C.ar    1  UNL1        0.0594
     31 C         139.0873  139.9941  165.6044 C.ar    1  UNL1        0.0148
     32 C         139.9730  140.0995  164.3985 C.ar    1  UNL1        0.0058
     33 C         140.2664  138.8808  163.5745 C.ar    1  UNL1        0.0551
     34 C         139.6739  137.5568  163.9566 C.ar    1  UNL1        0.1015
     35 N         138.7881  137.4515  165.1626 N.ar    1  UNL1       -0.2480
@<TRIPOS>BOND
     1    29    30    1
     2    30    31   ar
     3    31    32   ar
     4    32    33   ar
     5    33    23    1
     6    23    24   ar
     7    24    25   ar
     8    25    26   ar
     9    26    22    1
    10    22    21    1
    11    21    20    1
    12    20    19    1
    13    19     1    1
    14     1     2    1
    15     2     3    1
    16     3     4    1
    17     4     5   ar
    18     5     6   ar
    19     6     7   ar
    20     7     8   ar
    21     8     9   ar
    22     9    15    1
    23    15    16    1
    24    15    17    1
    25    15    18    1
    26     9    10   ar
    27    10    11   ar
    28    11    12   ar
    29    12    13    1
    30    13    14    1
    31    26    27   ar
    32    27    28    1
    33    33    34   ar
    34    34    35   ar
    35    35    30   ar
    36    27    23   ar
    37    14     1    1
    38    12     4   ar
    39    11     7   ar
@<TRIPOS>MOLECULE
*****
 35 39 0 0 0
SMALL
GASTEIGER

@<TRIPOS>ATOM
      1 N         142.5605  138.4045  162.8979 N.3     1  UNL1       -0.2720
      2 C         141.1489  137.9269  163.0700 C.3     1  UNL1        0.0768
      3 C         140.1958  138.2114  164.1928 C.3     1  UNL1        0.0434
      4 C         140.4188  139.0434  165.4207 C.ar    1  UNL1       -0.0231
      5 C         139.1998  139.0683  166.2946 C.ar    1  UNL1       -0.0013
      6 C         139.2121  139.8465  167.5769 C.ar    1  UNL1        0.0388
      7 C         140.4433  140.5997  167.9855 C.ar    1  UNL1        0.1643
      8 O         140.7494  141.4482  169.1839 O.2     1  UNL1       -0.4317
      9 C         142.1575  141.9478  169.0507 C.ar    1  UNL1        0.3031
     10 N         142.7217  141.4080  167.7699 N.ar    1  UNL1       -0.2053
     11 C         141.6622  140.5748  167.1115 C.ar    1  UNL1        0.1145
     12 C         141.6500  139.7967  165.8292 C.ar    1  UNL1       -0.0039
     13 C         142.9623  139.9038  165.1106 C.3     1  UNL1        0.0450
     14 C         143.3674  139.2842  163.8060 C.3     1  UNL1        0.0769
     15 C         142.8755  142.8319  170.0268 C.3     1  UNL1        0.4696
     16 F         143.5933  143.7161  171.0030 F       1  UNL1       -0.1619
     17 F         144.1111  141.9951  169.8760 F       1  UNL1       -0.1619
     18 F         141.6397  143.6687  170.1777 F       1  UNL1       -0.1619
     19 C         143.2571  137.9408  161.6530 C.3     1  UNL1        0.0730
     20 C         144.0963  138.8997  160.8617 C.3     1  UNL1        0.0294
     21 C         143.6874  139.2825  159.4702 C.3     1  UNL1        0.0666
     22 S         143.5878  140.7298  159.0891 S.3     1  UNL1       -0.0756
     23 C         142.2820  143.0789  161.8895 C.ar    1  UNL1        0.1683
     24 N         143.6468  143.6512  161.6440 N.ar    1  UNL1       -0.1282
     25 N         144.3019  142.8409  160.5651 N.ar    1  UNL1       -0.1221
     26 C         143.3422  141.7678  160.1438 C.ar    1  UNL1        0.1932
     27 N         142.0939  141.9150  160.9623 N.ar    1  UNL1       -0.2884
     28 C         140.8719  141.0499  160.8699 C.3     1  UNL1        0.1340
     29 C         138.2791  145.0924  165.8797 C.3     1  UNL1        0.0521
     30 C         139.2798  144.5890  164.8822 C.ar    1  UNL1        0.0594
     31 C         140.3326  143.6080  165.3056 C.ar    1  UNL1        0.0148
     32 C         141.3333  143.1046  164.3080 C.ar    1  UNL1        0.0058
     33 C         141.2814  143.5823  162.8870 C.ar    1  UNL1        0.0551
     34 C         140.2286  144.5633  162.4637 C.ar    1  UNL1        0.1015
     35 N         139.2278  145.0667  163.4613 N.ar    1  UNL1       -0.2480
@<TRIPOS>BOND
     1    29    30    1
     2    30    31   ar
     3    31    32   ar
     4    32    33   ar
     5    33    23    1
     6    23    24   ar
     7    24    25   ar
     8    25    26   ar
     9    26    22    1
    10    22    21    1
    11    21    20    1
    12    20    19    1
    13    19     1    1
    14     1     2    1
    15     2     3    1
    16     3     4    1
    17     4     5   ar
    18     5     6   ar
    19     6     7   ar
    20     7     8   ar
    21     8     9   ar
    22     9    15    1
    23    15    16    1
    24    15    17    1
    25    15    18    1
    26     9    10   ar
    27    10    11   ar
    28    11    12   ar
    29    12    13    1
    30    13    14    1
    31    26    27   ar
    32    27    28    1
    33    33    34   ar
    34    34    35   ar
    35    35    30   ar
    36    27    23   ar
    37    14     1    1
    38    12     4   ar
    39    11     7   ar
@<TRIPOS>MOLECULE
*****
 35 39 0 0 0
SMALL
GASTEIGER

@<TRIPOS>ATOM
      1 N         139.9554  144.5934  159.7273 N.3     1  UNL1       -0.2720
      2 C         140.0758  145.7095  160.7223 C.3     1  UNL1        0.0768
      3 C         139.9538  145.6478  162.2162 C.3     1  UNL1        0.0434
      4 C         139.6812  144.4549  163.0837 C.ar    1  UNL1       -0.0231
      5 C         139.6387  144.8312  164.5352 C.ar    1  UNL1       -0.0013
      6 C         139.3783  143.7817  165.5747 C.ar    1  UNL1        0.0388
      7 C         139.1604  142.3559  165.1629 C.ar    1  UNL1        0.1643
      8 O         138.8846  141.1130  165.9560 O.2     1  UNL1       -0.4317
      9 C         138.7567  139.9685  164.9948 C.ar    1  UNL1        0.3031
     10 N         138.9534  140.5041  163.6076 N.ar    1  UNL1       -0.2053
     11 C         139.2029  141.9796  163.7114 C.ar    1  UNL1        0.1145
     12 C         139.4633  143.0291  162.6719 C.ar    1  UNL1       -0.0039
     13 C         139.4642  142.4440  161.2907 C.3     1  UNL1        0.0450
     14 C         139.6832  143.1403  159.9802 C.3     1  UNL1        0.0769
     15 C         138.4806  138.5394  165.3572 C.3     1  UNL1        0.4696
     16 F         138.2043  137.1103  165.7197 F       1  UNL1       -0.1619
     17 F         139.2796  138.0845  164.1721 F       1  UNL1       -0.1619
     18 F         137.6815  138.9943  166.5424 F       1  UNL1       -0.1619
     19 C         140.1303  144.9822  158.2891 C.3     1  UNL1        0.0730
     20 C         141.4414  144.7419  157.6013 C.3     1  UNL1        0.0294
     21 C         142.0913  143.3920  157.6762 C.3     1  UNL1        0.0666
     22 S         143.3746  143.2183  158.4330 S.3     1  UNL1       -0.0756
     23 C         143.4326  141.9962  162.1166 C.ar    1  UNL1        0.1683
     24 N         143.1810  143.4634  162.3018 N.ar    1  UNL1       -0.1282
     25 N         143.1286  144.0997  160.9445 N.ar    1  UNL1       -0.1221
     26 C         143.3479  143.0259  159.9204 C.ar    1  UNL1        0.1932
     27 N         143.5358  141.7260  160.6448 N.ar    1  UNL1       -0.2884
     28 C         143.7833  140.3901  160.0090 C.3     1  UNL1        0.1340
     29 C         143.9378  137.9244  166.4942 C.3     1  UNL1        0.0521
     30 C         143.8115  138.9423  165.3998 C.ar    1  UNL1        0.0594
     31 C         142.4744  139.5466  165.0883 C.ar    1  UNL1        0.0148
     32 C         142.3481  140.5646  163.9939 C.ar    1  UNL1        0.0058
     33 C         143.5589  140.9783  163.2109 C.ar    1  UNL1        0.0551
     34 C         144.8959  140.3740  163.5226 C.ar    1  UNL1        0.1015
     35 N         145.0222  139.3560  164.6170 N.ar    1  UNL1       -0.2480
@<TRIPOS>BOND
     1    29    30    1
     2    30    31   ar
     3    31    32   ar
     4    32    33   ar
     5    33    23    1
     6    23    24   ar
     7    24    25   ar
     8    25    26   ar
     9    26    22    1
    10    22    21    1
    11    21    20    1
    12    20    19    1
    13    19     1    1
    14     1     2    1
    15     2     3    1
    16     3     4    1
    17     4     5   ar
    18     5     6   ar
    19     6     7   ar
    20     7     8   ar
    21     8     9   ar
    22     9    15    1
    23    15    16    1
    24    15    17    1
    25    15    18    1
    26     9    10   ar
    27    10    11   ar
    28    11    12   ar
    29    12    13    1
    30    13    14    1
    31    26    27   ar
    32    27    28    1
    33    33    34   ar
    34    34    35   ar
    35    35    30   ar
    36    27    23   ar
    37    14     1    1
    38    12     4   ar
    39    11     7   ar
@<TRIPOS>MOLECULE
*****
 35 39 0 0 0
SMALL
GASTEIGER

@<TRIPOS>ATOM
      1 N         140.6738  143.4219  160.0343 N.3     1  UNL1       -0.2720
      2 C         141.0024  144.5587  160.9563 C.3     1  UNL1        0.0768
      3 C         140.8953  144.6110  162.4516 C.3     1  UNL1        0.0434
      4 C         140.4333  143.5396  163.3941 C.ar    1  UNL1       -0.0231
      5 C         140.4800  144.0059  164.8191 C.ar    1  UNL1       -0.0013
      6 C         140.0576  143.0838  165.9242 C.ar    1  UNL1        0.0388
      7 C         139.5884  141.6953  165.6044 C.ar    1  UNL1        0.1643
      8 O         139.1133  140.5708  166.4759 O.2     1  UNL1       -0.4317
      9 C         138.7729  139.4094  165.5896 C.ar    1  UNL1        0.3031
     10 N         139.0377  139.8163  164.1703 N.ar    1  UNL1       -0.2053
     11 C         139.5417  141.2291  164.1795 C.ar    1  UNL1        0.1145
     12 C         139.9641  142.1512  163.0744 C.ar    1  UNL1       -0.0039
     13 C         139.8412  141.4913  161.7329 C.3     1  UNL1        0.0450
     14 C         140.1571  142.0569  160.3800 C.3     1  UNL1        0.0769
     15 C         138.2582  138.0755  166.0430 C.3     1  UNL1        0.4696
     16 F         137.7434  136.7415  166.4964 F       1  UNL1       -0.1619
     17 F         139.1673  137.3923  165.0648 F       1  UNL1       -0.1619
     18 F         137.3491  138.7587  167.0212 F       1  UNL1       -0.1619
     19 C         140.8908  143.6851  158.5736 C.3     1  UNL1        0.0730
     20 C         141.7409  142.7534  157.7618 C.3     1  UNL1        0.0294
     21 C         143.1159  143.1734  157.3339 C.3     1  UNL1        0.0666
     22 S         144.3214  142.4888  157.9067 S.3     1  UNL1       -0.0756
     23 C         143.8888  139.9920  160.8469 C.ar    1  UNL1        0.1683
     24 N         143.8904  139.0591  159.6721 N.ar    1  UNL1       -0.1282
     25 N         144.0526  139.8809  158.4279 N.ar    1  UNL1       -0.1221
     26 C         144.1513  141.3216  158.8335 C.ar    1  UNL1        0.1932
     27 N         144.0501  141.3902  160.3284 N.ar    1  UNL1       -0.2884
     28 C         144.1011  142.6381  161.1593 C.3     1  UNL1        0.1340
     29 C         143.3347  138.4082  166.6074 C.3     1  UNL1        0.0521
     30 C         143.4732  138.8041  165.1672 C.ar    1  UNL1        0.0594
     31 C         142.3734  138.4948  164.1953 C.ar    1  UNL1        0.0148
     32 C         142.5119  138.8908  162.7551 C.ar    1  UNL1        0.0058
     33 C         143.7503  139.5960  162.2869 C.ar    1  UNL1        0.0551
     34 C         144.8500  139.9053  163.2590 C.ar    1  UNL1        0.1015
     35 N         144.7115  139.5093  164.6991 N.ar    1  UNL1       -0.2480
@<TRIPOS>BOND
     1    29    30    1
     2    30    31   ar
     3    31    32   ar
     4    32    33   ar
     5    33    23    1
     6    23    24   ar
     7    24    25   ar
     8    25    26   ar
     9    26    22    1
    10    22    21    1
    11    21    20    1
    12    20    19    1
    13    19     1    1
    14     1     2    1
    15     2     3    1
    16     3     4    1
    17     4     5   ar
    18     5     6   ar
    19     6     7   ar
    20     7     8   ar
    21     8     9   ar
    22     9    15    1
    23    15    16    1
    24    15    17    1
    25    15    18    1
    26     9    10   ar
    27    10    11   ar
    28    11    12   ar
    29    12    13    1
    30    13    14    1
    31    26    27   ar
    32    27    28    1
    33    33    34   ar
    34    34    35   ar
    35    35    30   ar
    36    27    23   ar
    37    14     1    1
    38    12     4   ar
    39    11     7   ar
@<TRIPOS>MOLECULE
*****
 35 39 0 0 0
SMALL
GASTEIGER

@<TRIPOS>ATOM
      1 N         139.5155  141.6326  159.1921 N.3     1  UNL1       -0.2720
      2 C         140.7536  140.8295  158.9232 C.3     1  UNL1        0.0768
      3 C         141.3791  139.7627  159.7723 C.3     1  UNL1        0.0434
      4 C         140.9211  139.2357  161.0998 C.ar    1  UNL1       -0.0231
      5 C         141.8385  138.1643  161.6102 C.ar    1  UNL1       -0.0013
      6 C         141.5592  137.5025  162.9270 C.ar    1  UNL1        0.0388
      7 C         140.3626  137.9119  163.7335 C.ar    1  UNL1        0.1643
      8 O         139.8356  137.4423  165.0570 O.2     1  UNL1       -0.4317
      9 C         138.5925  138.2234  165.3646 C.ar    1  UNL1        0.3031
     10 N         138.3512  139.1759  164.2311 N.ar    1  UNL1       -0.2053
     11 C         139.4451  138.9833  163.2230 C.ar    1  UNL1        0.1145
     12 C         139.7244  139.6452  161.9062 C.ar    1  UNL1       -0.0039
     13 C         138.6902  140.6829  161.5842 C.3     1  UNL1        0.0450
     14 C         138.5973  141.5674  160.3763 C.3     1  UNL1        0.0769
     15 C         137.7404  138.0778  166.5904 C.3     1  UNL1        0.4696
     16 F         136.8882  137.9322  167.8162 F       1  UNL1       -0.1619
     17 F         137.8346  136.5849  166.4784 F       1  UNL1       -0.1619
     18 F         137.6462  139.5707  166.7023 F       1  UNL1       -0.1619
     19 C         139.1472  142.6333  158.1371 C.3     1  UNL1        0.0730
     20 C         140.1021  143.7339  157.7813 C.3     1  UNL1        0.0294
     21 C         140.0811  145.0225  158.5490 C.3     1  UNL1        0.0666
     22 S         141.1969  145.3490  159.4968 S.3     1  UNL1       -0.0756
     23 C         141.8925  142.8412  162.3764 C.ar    1  UNL1        0.1683
     24 N         143.0513  142.5646  161.4649 N.ar    1  UNL1       -0.1282
     25 N         142.9317  143.4704  160.2753 N.ar    1  UNL1       -0.1221
     26 C         141.6990  144.3068  160.4515 C.ar    1  UNL1        0.1932
     27 N         141.0568  143.9179  161.7500 N.ar    1  UNL1       -0.2884
     28 C         139.7995  144.5030  162.3219 C.3     1  UNL1        0.1340
     29 C         140.7933  140.1186  167.6089 C.3     1  UNL1        0.0521
     30 C         141.0681  140.7992  166.3007 C.ar    1  UNL1        0.0594
     31 C         140.2037  141.9404  165.8530 C.ar    1  UNL1        0.0148
     32 C         140.4785  142.6211  164.5448 C.ar    1  UNL1        0.0058
     33 C         141.6177  142.1606  163.6845 C.ar    1  UNL1        0.0551
     34 C         142.4820  141.0194  164.1323 C.ar    1  UNL1        0.1015
     35 N         142.2072  140.3387  165.4405 N.ar    1  UNL1       -0.2480
@<TRIPOS>BOND
     1    29    30    1
     2    30    31   ar
     3    31    32   ar
     4    32    33   ar
     5    33    23    1
     6    23    24   ar
     7    24    25   ar
     8    25    26   ar
     9    26    22    1
    10    22    21    1
    11    21    20    1
    12    20    19    1
    13    19     1    1
    14     1     2    1
    15     2     3    1
    16     3     4    1
    17     4     5   ar
    18     5     6   ar
    19     6     7   ar
    20     7     8   ar
    21     8     9   ar
    22     9    15    1
    23    15    16    1
    24    15    17    1
    25    15    18    1
    26     9    10   ar
    27    10    11   ar
    28    11    12   ar
    29    12    13    1
    30    13    14    1
    31    26    27   ar
    32    27    28    1
    33    33    34   ar
    34    34    35   ar
    35    35    30   ar
    36    27    23   ar
    37    14     1    1
    38    12     4   ar
    39    11     7   ar
@<TRIPOS>MOLECULE
*****
 35 39 0 0 0
SMALL
GASTEIGER

@<TRIPOS>ATOM
      1 N         138.6412  142.0687  161.1189 N.3     1  UNL1       -0.2720
      2 C         138.0526  140.7022  161.3096 C.3     1  UNL1        0.0768
      3 C         137.9992  139.8729  162.5584 C.3     1  UNL1        0.0434
      4 C         138.5212  140.2052  163.9247 C.ar    1  UNL1       -0.0231
      5 C         138.2608  139.0925  164.8964 C.ar    1  UNL1       -0.0013
      6 C         138.7047  139.2235  166.3232 C.ar    1  UNL1        0.0388
      7 C         139.4091  140.4672  166.7784 C.ar    1  UNL1        0.1643
      8 O         139.9591  140.8782  168.1120 O.2     1  UNL1       -0.4317
      9 C         140.5594  142.2449  167.9646 C.ar    1  UNL1        0.3031
     10 N         140.3804  142.6786  166.5398 N.ar    1  UNL1       -0.2053
     11 C         139.6694  141.5799  165.8067 C.ar    1  UNL1        0.1145
     12 C         139.2255  141.4489  164.3799 C.ar    1  UNL1       -0.0039
     13 C         139.5818  142.6674  163.5811 C.3     1  UNL1        0.0450
     14 C         139.3217  142.9432  162.1297 C.3     1  UNL1        0.0769
     15 C         141.2224  143.0386  169.0511 C.3     1  UNL1        0.4696
     16 F         141.8852  143.8324  170.1376 F       1  UNL1       -0.1619
     17 F         142.3742  142.0777  169.0502 F       1  UNL1       -0.1619
     18 F         140.0705  143.9995  169.0520 F       1  UNL1       -0.1619
     19 C         138.5352  142.6354  159.7341 C.3     1  UNL1        0.0730
     20 C         139.7155  143.3207  159.1118 C.3     1  UNL1        0.0294
     21 C         140.5412  142.6062  158.0832 C.3     1  UNL1        0.0666
     22 S         142.0223  142.4670  158.2751 S.3     1  UNL1       -0.0756
     23 C         143.2471  141.5429  161.8404 C.ar    1  UNL1        0.1683
     24 N         143.7034  142.9682  161.7375 N.ar    1  UNL1       -0.1282
     25 N         143.3001  143.4877  160.3894 N.ar    1  UNL1       -0.1221
     26 C         142.5946  142.3837  159.6592 C.ar    1  UNL1        0.1932
     27 N         142.5618  141.1818  160.5559 N.ar    1  UNL1       -0.2884
     28 C         141.9510  139.8520  160.2261 C.3     1  UNL1        0.1340
     29 C         144.0263  137.9226  166.5612 C.3     1  UNL1        0.0521
     30 C         143.8315  138.8277  165.3810 C.ar    1  UNL1        0.0594
     31 C         142.4467  139.2105  164.9499 C.ar    1  UNL1        0.0148
     32 C         142.2519  140.1156  163.7697 C.ar    1  UNL1        0.0058
     33 C         143.4419  140.6379  163.0206 C.ar    1  UNL1        0.0551
     34 C         144.8266  140.2550  163.4517 C.ar    1  UNL1        0.1015
     35 N         145.0214  139.3500  164.6319 N.ar    1  UNL1       -0.2480
@<TRIPOS>BOND
     1    29    30    1
     2    30    31   ar
     3    31    32   ar
     4    32    33   ar
     5    33    23    1
     6    23    24   ar
     7    24    25   ar
     8    25    26   ar
     9    26    22    1
    10    22    21    1
    11    21    20    1
    12    20    19    1
    13    19     1    1
    14     1     2    1
    15     2     3    1
    16     3     4    1
    17     4     5   ar
    18     5     6   ar
    19     6     7   ar
    20     7     8   ar
    21     8     9   ar
    22     9    15    1
    23    15    16    1
    24    15    17    1
    25    15    18    1
    26     9    10   ar
    27    10    11   ar
    28    11    12   ar
    29    12    13    1
    30    13    14    1
    31    26    27   ar
    32    27    28    1
    33    33    34   ar
    34    34    35   ar
    35    35    30   ar
    36    27    23   ar
    37    14     1    1
    38    12     4   ar
    39    11     7   ar
@<TRIPOS>MOLECULE
*****
 35 39 0 0 0
SMALL
GASTEIGER

@<TRIPOS>ATOM
      1 N         139.7258  141.3045  167.8691 N.3     1  UNL1       -0.2720
      2 C         139.3075  139.8677  167.7638 C.3     1  UNL1        0.0768
      3 C         138.9447  139.0870  166.5354 C.3     1  UNL1        0.0434
      4 C         138.9105  139.5500  165.1092 C.ar    1  UNL1       -0.0231
      5 C         138.4914  138.4458  164.1844 C.ar    1  UNL1       -0.0013
      6 C         138.3924  138.6998  162.7094 C.ar    1  UNL1        0.0388
      7 C         138.7126  140.0580  162.1591 C.ar    1  UNL1        0.1643
      8 O         138.7045  140.6021  160.7613 O.2     1  UNL1       -0.4317
      9 C         139.1187  142.0425  160.8221 C.ar    1  UNL1        0.3031
     10 N         139.3827  142.3887  162.2575 N.ar    1  UNL1       -0.2053
     11 C         139.1317  141.1622  163.0839 C.ar    1  UNL1        0.1145
     12 C         139.2306  140.9082  164.5589 C.ar    1  UNL1       -0.0039
     13 C         139.6641  142.1388  165.2990 C.3     1  UNL1        0.0450
     14 C         139.8844  142.3151  166.7722 C.3     1  UNL1        0.0769
     15 C         139.2464  142.9733  159.6528 C.3     1  UNL1        0.4696
     16 F         139.3741  143.9041  158.4834 F       1  UNL1       -0.1619
     17 F         140.1855  143.8362  160.4423 F       1  UNL1       -0.1619
     18 F         138.3072  142.1104  158.8632 F       1  UNL1       -0.1619
     19 C         140.0248  141.7952  169.2547 C.3     1  UNL1        0.0730
     20 C         140.7565  143.0900  169.4501 C.3     1  UNL1        0.0294
     21 C         142.0042  143.1283  170.2819 C.3     1  UNL1        0.0666
     22 S         143.2608  142.4817  169.7791 S.3     1  UNL1       -0.0756
     23 C         143.1333  139.8264  166.9510 C.ar    1  UNL1        0.1683
     24 N         142.9799  138.9620  168.1673 N.ar    1  UNL1       -0.1282
     25 N         143.0090  139.8515  169.3747 N.ar    1  UNL1       -0.1221
     26 C         143.1804  141.2656  168.9047 C.ar    1  UNL1        0.1932
     27 N         143.2572  141.2500  167.4068 N.ar    1  UNL1       -0.2884
     28 C         143.4280  142.4479  166.5202 C.3     1  UNL1        0.1340
     29 C         143.2338  137.9231  161.2618 C.3     1  UNL1        0.0521
     30 C         143.2087  138.3990  162.6841 C.ar    1  UNL1        0.0594
     31 C         142.1376  137.9173  163.6173 C.ar    1  UNL1        0.0148
     32 C         142.1125  138.3931  165.0396 C.ar    1  UNL1        0.0058
     33 C         143.1585  139.3506  165.5287 C.ar    1  UNL1        0.0551
     34 C         144.2294  139.8322  164.5955 C.ar    1  UNL1        0.1015
     35 N         144.2546  139.3564  163.1732 N.ar    1  UNL1       -0.2480
@<TRIPOS>BOND
     1    29    30    1
     2    30    31   ar
     3    31    32   ar
     4    32    33   ar
     5    33    23    1
     6    23    24   ar
     7    24    25   ar
     8    25    26   ar
     9    26    22    1
    10    22    21    1
    11    21    20    1
    12    20    19    1
    13    19     1    1
    14     1     2    1
    15     2     3    1
    16     3     4    1
    17     4     5   ar
    18     5     6   ar
    19     6     7   ar
    20     7     8   ar
    21     8     9   ar
    22     9    15    1
    23    15    16    1
    24    15    17    1
    25    15    18    1
    26     9    10   ar
    27    10    11   ar
    28    11    12   ar
    29    12    13    1
    30    13    14    1
    31    26    27   ar
    32    27    28    1
    33    33    34   ar
    34    34    35   ar
    35    35    30   ar
    36    27    23   ar
    37    14     1    1
    38    12     4   ar
    39    11     7   ar
