@<TRIPOS>MOLECULE
*****
 26 29 0 0 0
SMALL
GASTEIGER

@<TRIPOS>ATOM
      1 C         139.7080  138.4636  163.6534 C.ar    1  UNL1        0.1366
      2 C         138.7702  137.7900  164.6108 C.ar    1  UNL1        0.0353
      3 C         138.6083  138.3241  166.0031 C.ar    1  UNL1        0.0630
      4 CL        137.6704  137.6505  166.9606 Cl      1  UNL1       -0.0821
      5 C         139.3844  139.5318  166.4380 C.ar    1  UNL1        0.0564
      6 C         139.4319  140.2802  167.7372 C.ar    1  UNL1        0.0730
      7 CL        138.6495  139.9503  168.9737 Cl      1  UNL1       -0.0810
      8 C         140.3991  141.4162  167.5827 C.ar    1  UNL1        0.0486
      9 N         140.9494  141.3700  166.1881 N.ar    1  UNL1       -0.3160
     10 C         140.3223  140.2054  165.4806 C.ar    1  UNL1        0.1453
     11 N         140.4841  139.6712  164.0883 N.ar    1  UNL1       -0.2236
     12 C         141.9510  142.3214  165.6035 C.3     1  UNL1        0.1023
     13 C         143.3831  142.2685  166.0466 C.3     1  UNL1        0.0254
     14 C         144.3846  143.2199  165.4619 C.3     1  UNL1        0.0191
     15 C         143.9541  144.2241  164.4342 C.3     1  UNL1        0.0687
     16 N         142.5220  144.2770  163.9911 N.3     1  UNL1       -0.2959
     17 C         141.5205  143.3256  164.5757 C.3     1  UNL1        0.0914
     18 H         142.5199  144.1237  162.9827 H       1  UNL1        0.1233
     19 N         138.6814  137.8362  161.3507 N.am    1  UNL1       -0.3241
     20 C         139.8699  137.9294  162.2611 C.2     1  UNL1        0.2606
     21 O         141.2201  137.4884  161.7792 O.2     1  UNL1       -0.2687
     22 H         138.7876  137.4856  160.4369 H       1  UNL1        0.1453
     23 H         137.7952  138.1256  161.6670 H       1  UNL1        0.1453
     24 C         140.7537  142.4219  168.6377 C.3     1  UNL1        0.0392
     25 C         141.7425  142.9864  169.6143 C.3     1  UNL1        0.0063
     26 C         140.3792  143.5992  169.4882 C.3     1  UNL1        0.0063
@<TRIPOS>BOND
     1    19    20   am
     2    20    21    2
     3    20     1    1
     4     1     2   ar
     5     2     3   ar
     6     3     4    1
     7     3     5   ar
     8     5     6   ar
     9     6     7    1
    10     6     8   ar
    11     8    24    1
    12    24    25    1
    13    25    26    1
    14     8     9   ar
    15    12     9    1
    16    12    13    1
    17    13    14    1
    18    14    15    1
    19    15    16    1
    20    16    17    1
    21     9    10   ar
    22    10    11   ar
    23    11     1   ar
    24    10     5   ar
    25    26    24    1
    26    17    12    1
    27    19    22    1
    28    19    23    1
    29    16    18    1
@<TRIPOS>MOLECULE
*****
 26 29 0 0 0
SMALL
GASTEIGER

@<TRIPOS>ATOM
      1 C         141.9997  141.9744  169.3262 C.ar    1  UNL1        0.1366
      2 C         140.7107  141.5682  169.9768 C.ar    1  UNL1        0.0353
      3 C         139.7444  140.6873  169.2418 C.ar    1  UNL1        0.0630
      4 CL        138.4553  140.2812  169.8925 Cl      1  UNL1       -0.0821
      5 C         140.0671  140.2126  167.8560 C.ar    1  UNL1        0.0564
      6 C         139.3155  139.3427  166.8925 C.ar    1  UNL1        0.0730
      7 CL        137.9748  138.7146  167.1330 Cl      1  UNL1       -0.0810
      8 C         140.1400  139.2112  165.6463 C.ar    1  UNL1        0.0486
      9 N         141.4012  139.9998  165.8396 N.ar    1  UNL1       -0.3160
     10 C         141.3562  140.6187  167.2053 C.ar    1  UNL1        0.1453
     11 N         142.3224  141.4996  167.9404 N.ar    1  UNL1       -0.2236
     12 C         142.5123  140.1443  164.8424 C.3     1  UNL1        0.1023
     13 C         143.7817  139.3640  165.0156 C.3     1  UNL1        0.0254
     14 C         144.8928  139.5085  164.0183 C.3     1  UNL1        0.0191
     15 C         144.7346  140.4332  162.8479 C.3     1  UNL1        0.0687
     16 N         143.4652  141.2134  162.6747 N.3     1  UNL1       -0.2959
     17 C         142.3541  141.0689  163.6719 C.3     1  UNL1        0.0914
     18 H         143.0812  140.9531  161.7663 H       1  UNL1        0.1233
     19 N         144.4249  142.5080  170.0900 N.am    1  UNL1       -0.3241
     20 C         142.9660  142.8553  170.0612 C.2     1  UNL1        0.2606
     21 O         142.4733  144.0834  170.7675 O.2     1  UNL1       -0.2687
     22 H         145.0591  143.0862  170.5725 H       1  UNL1        0.1453
     23 H         144.7483  141.7019  169.6265 H       1  UNL1        0.1453
     24 C         139.7684  138.4285  164.4218 C.3     1  UNL1        0.0392
     25 C         140.1604  137.5339  163.2833 C.3     1  UNL1        0.0063
     26 C         138.7329  137.9674  163.4395 C.3     1  UNL1        0.0063
@<TRIPOS>BOND
     1    19    20   am
     2    20    21    2
     3    20     1    1
     4     1     2   ar
     5     2     3   ar
     6     3     4    1
     7     3     5   ar
     8     5     6   ar
     9     6     7    1
    10     6     8   ar
    11     8    24    1
    12    24    25    1
    13    25    26    1
    14     8     9   ar
    15    12     9    1
    16    12    13    1
    17    13    14    1
    18    14    15    1
    19    15    16    1
    20    16    17    1
    21     9    10   ar
    22    10    11   ar
    23    11     1   ar
    24    10     5   ar
    25    26    24    1
    26    17    12    1
    27    19    22    1
    28    19    23    1
    29    16    18    1
@<TRIPOS>MOLECULE
*****
 26 29 0 0 0
SMALL
GASTEIGER

@<TRIPOS>ATOM
      1 C         141.2536  141.8255  169.8278 C.ar    1  UNL1        0.1366
      2 C         141.6627  140.4502  170.2651 C.ar    1  UNL1        0.0353
      3 C         142.3688  139.5375  169.3068 C.ar    1  UNL1        0.0630
      4 CL        142.7778  138.1622  169.7442 Cl      1  UNL1       -0.0821
      5 C         142.6659  140.0001  167.9112 C.ar    1  UNL1        0.0564
      6 C         143.3431  139.3280  166.7538 C.ar    1  UNL1        0.0730
      7 CL        143.9111  137.9397  166.7498 Cl      1  UNL1       -0.0810
      8 C         143.3526  140.2879  165.6012 C.ar    1  UNL1        0.0486
      9 N         142.6813  141.5532  166.0462 N.ar    1  UNL1       -0.3160
     10 C         142.2568  141.3754  167.4739 C.ar    1  UNL1        0.1453
     11 N         141.5507  142.2881  168.4322 N.ar    1  UNL1       -0.2236
     12 C         142.4713  142.7809  165.2104 C.3     1  UNL1        0.1023
     13 C         143.6466  143.6143  164.7931 C.3     1  UNL1        0.0254
     14 C         143.4364  144.8420  163.9573 C.3     1  UNL1        0.0191
     15 C         142.0511  145.2363  163.5387 C.3     1  UNL1        0.0687
     16 N         140.8757  144.4029  163.9559 N.3     1  UNL1       -0.2959
     17 C         141.0859  143.1752  164.7918 C.3     1  UNL1        0.0914
     18 H         140.4106  144.1003  163.1000 H       1  UNL1        0.1233
     19 N         140.0597  144.0791  170.3235 N.am    1  UNL1       -0.3241
     20 C         140.5475  142.7382  170.7861 C.2     1  UNL1        0.2606
     21 O         140.3292  142.3101  172.2070 O.2     1  UNL1       -0.2687
     22 H         139.5962  144.6781  170.9525 H       1  UNL1        0.1453
     23 H         140.2029  144.3601  169.3910 H       1  UNL1        0.1453
     24 C         143.9319  140.0280  164.2421 C.3     1  UNL1        0.0392
     25 C         144.0658  139.1500  163.0333 C.3     1  UNL1        0.0063
     26 C         144.8012  140.4558  163.0970 C.3     1  UNL1        0.0063
@<TRIPOS>BOND
     1    19    20   am
     2    20    21    2
     3    20     1    1
     4     1     2   ar
     5     2     3   ar
     6     3     4    1
     7     3     5   ar
     8     5     6   ar
     9     6     7    1
    10     6     8   ar
    11     8    24    1
    12    24    25    1
    13    25    26    1
    14     8     9   ar
    15    12     9    1
    16    12    13    1
    17    13    14    1
    18    14    15    1
    19    15    16    1
    20    16    17    1
    21     9    10   ar
    22    10    11   ar
    23    11     1   ar
    24    10     5   ar
    25    26    24    1
    26    17    12    1
    27    19    22    1
    28    19    23    1
    29    16    18    1
@<TRIPOS>MOLECULE
*****
 26 29 0 0 0
SMALL
GASTEIGER

@<TRIPOS>ATOM
      1 C         142.9350  143.1750  163.6752 C.ar    1  UNL1        0.1366
      2 C         143.4784  143.2126  165.0727 C.ar    1  UNL1        0.0353
      3 C         142.8590  142.3618  166.1415 C.ar    1  UNL1        0.0630
      4 CL        143.4025  142.3995  167.5391 Cl      1  UNL1       -0.0821
      5 C         141.6960  141.4733  165.8127 C.ar    1  UNL1        0.0564
      6 C         140.8852  140.5299  166.6509 C.ar    1  UNL1        0.0730
      7 CL        141.0841  140.2554  168.1121 Cl      1  UNL1       -0.0810
      8 C         139.8406  139.9092  165.7713 C.ar    1  UNL1        0.0486
      9 N         140.0058  140.4690  164.3896 N.ar    1  UNL1       -0.3160
     10 C         141.1526  141.4357  164.4152 C.ar    1  UNL1        0.1453
     11 N         141.7720  142.2865  163.3464 N.ar    1  UNL1       -0.2236
     12 C         139.1709  140.1229  163.1924 C.3     1  UNL1        0.1023
     13 C         139.5302  138.9389  162.3444 C.3     1  UNL1        0.0254
     14 C         138.6953  138.5929  161.1473 C.3     1  UNL1        0.0191
     15 C         137.5012  139.4308  160.7981 C.3     1  UNL1        0.0687
     16 N         137.1419  140.6148  161.6461 N.3     1  UNL1       -0.2959
     17 C         137.9768  140.9608  162.8433 C.3     1  UNL1        0.0914
     18 H         136.1927  140.4574  161.9847 H       1  UNL1        0.1233
     19 N         143.7986  145.4845  162.8565 N.am    1  UNL1       -0.3241
     20 C         143.5545  144.0259  162.6064 C.2     1  UNL1        0.2606
     21 O         143.9299  143.4180  161.2875 O.2     1  UNL1       -0.2687
     22 H         144.2052  146.0430  162.1550 H       1  UNL1        0.1453
     23 H         143.5522  145.8835  163.7221 H       1  UNL1        0.1453
     24 C         138.8115  138.9050  166.1986 C.3     1  UNL1        0.0392
     25 C         138.1661  137.5599  166.0433 C.3     1  UNL1        0.0063
     26 C         137.6744  138.5108  167.0940 C.3     1  UNL1        0.0063
@<TRIPOS>BOND
     1    19    20   am
     2    20    21    2
     3    20     1    1
     4     1     2   ar
     5     2     3   ar
     6     3     4    1
     7     3     5   ar
     8     5     6   ar
     9     6     7    1
    10     6     8   ar
    11     8    24    1
    12    24    25    1
    13    25    26    1
    14     8     9   ar
    15    12     9    1
    16    12    13    1
    17    13    14    1
    18    14    15    1
    19    15    16    1
    20    16    17    1
    21     9    10   ar
    22    10    11   ar
    23    11     1   ar
    24    10     5   ar
    25    26    24    1
    26    17    12    1
    27    19    22    1
    28    19    23    1
    29    16    18    1
@<TRIPOS>MOLECULE
*****
 26 29 0 0 0
SMALL
GASTEIGER

@<TRIPOS>ATOM
      1 C         140.7497  142.3993  169.0310 C.ar    1  UNL1        0.1366
      2 C         141.4402  141.1190  169.3970 C.ar    1  UNL1        0.0353
      3 C         142.1296  140.3096  168.3389 C.ar    1  UNL1        0.0630
      4 CL        142.8201  139.0293  168.7049 Cl      1  UNL1       -0.0821
      5 C         142.1284  140.7805  166.9147 C.ar    1  UNL1        0.0564
      6 C         142.7196  140.1990  165.6648 C.ar    1  UNL1        0.0730
      7 CL        143.4992  138.9210  165.5701 Cl      1  UNL1       -0.0810
      8 C         142.3945  141.1199  164.5263 C.ar    1  UNL1        0.0486
      9 N         141.6023  142.2706  165.0725 N.ar    1  UNL1       -0.3160
     10 C         141.4379  142.0608  166.5487 C.ar    1  UNL1        0.1453
     11 N         140.7485  142.8702  167.6068 N.ar    1  UNL1       -0.2236
     12 C         141.0684  143.4278  164.2816 C.3     1  UNL1        0.1023
     13 C         139.6606  143.3970  163.7645 C.3     1  UNL1        0.0254
     14 C         139.1267  144.5543  162.9736 C.3     1  UNL1        0.0191
     15 C         140.0005  145.7423  162.6997 C.3     1  UNL1        0.0687
     16 N         141.4083  145.7731  163.2167 N.3     1  UNL1       -0.2959
     17 C         141.9421  144.6159  164.0077 C.3     1  UNL1        0.0914
     18 H         141.4852  146.5975  163.8125 H       1  UNL1        0.1233
     19 N         140.2972  144.6873  170.1756 N.am    1  UNL1       -0.3241
     20 C         140.0603  143.2087  170.0891 C.2     1  UNL1        0.2606
     21 O         139.1340  142.5395  171.0607 O.2     1  UNL1       -0.2687
     22 H         139.8448  145.2185  170.8701 H       1  UNL1        0.1453
     23 H         140.9052  145.1265  169.5379 H       1  UNL1        0.1453
     24 C         142.7919  140.9245  163.0931 C.3     1  UNL1        0.0392
     25 C         142.7642  140.1040  161.8377 C.3     1  UNL1        0.0063
     26 C         143.5078  141.4064  161.8662 C.3     1  UNL1        0.0063
@<TRIPOS>BOND
     1    19    20   am
     2    20    21    2
     3    20     1    1
     4     1     2   ar
     5     2     3   ar
     6     3     4    1
     7     3     5   ar
     8     5     6   ar
     9     6     7    1
    10     6     8   ar
    11     8    24    1
    12    24    25    1
    13    25    26    1
    14     8     9   ar
    15    12     9    1
    16    12    13    1
    17    13    14    1
    18    14    15    1
    19    15    16    1
    20    16    17    1
    21     9    10   ar
    22    10    11   ar
    23    11     1   ar
    24    10     5   ar
    25    26    24    1
    26    17    12    1
    27    19    22    1
    28    19    23    1
    29    16    18    1
@<TRIPOS>MOLECULE
*****
 26 29 0 0 0
SMALL
GASTEIGER

@<TRIPOS>ATOM
      1 C         142.1821  138.7181  163.5000 C.ar    1  UNL1        0.1366
      2 C         143.0961  138.0142  164.4587 C.ar    1  UNL1        0.0353
      3 C         143.1303  138.4247  165.9010 C.ar    1  UNL1        0.0630
      4 CL        144.0443  137.7207  166.8597 Cl      1  UNL1       -0.0821
      5 C         142.2504  139.5391  166.3847 C.ar    1  UNL1        0.0564
      6 C         142.0685  140.1589  167.7385 C.ar    1  UNL1        0.0730
      7 CL        142.7870  139.7614  168.9938 Cl      1  UNL1       -0.0810
      8 C         141.0421  141.2459  167.6165 C.ar    1  UNL1        0.0486
      9 N         140.5896  141.2979  166.1874 N.ar    1  UNL1       -0.3160
     10 C         141.3364  140.2430  165.4261 C.ar    1  UNL1        0.1453
     11 N         141.3023  139.8325  163.9837 N.ar    1  UNL1       -0.2236
     12 C         139.5694  142.2394  165.6192 C.3     1  UNL1        0.1023
     13 C         139.7785  143.7214  165.7197 C.3     1  UNL1        0.0254
     14 C         138.7583  144.6628  165.1516 C.3     1  UNL1        0.0191
     15 C         137.5291  144.1224  164.4829 C.3     1  UNL1        0.0687
     16 N         137.3201  142.6404  164.3824 N.3     1  UNL1       -0.2959
     17 C         138.3403  141.6989  164.9506 C.3     1  UNL1        0.0914
     18 H         137.2378  142.4212  163.3897 H       1  UNL1        0.1233
     19 N         143.2959  137.5433  161.4680 N.am    1  UNL1       -0.3241
     20 C         142.1479  138.3076  162.0577 C.2     1  UNL1        0.2606
     21 O         140.9657  138.6614  161.2051 O.2     1  UNL1       -0.2687
     22 H         143.2735  137.2739  160.5214 H       1  UNL1        0.1453
     23 H         144.0719  137.3111  162.0276 H       1  UNL1        0.1453
     24 C         140.5538  142.1263  168.7286 C.3     1  UNL1        0.0392
     25 C         140.4035  143.4898  169.3354 C.3     1  UNL1        0.0063
     26 C         139.8586  142.2876  170.0479 C.3     1  UNL1        0.0063
@<TRIPOS>BOND
     1    19    20   am
     2    20    21    2
     3    20     1    1
     4     1     2   ar
     5     2     3   ar
     6     3     4    1
     7     3     5   ar
     8     5     6   ar
     9     6     7    1
    10     6     8   ar
    11     8    24    1
    12    24    25    1
    13    25    26    1
    14     8     9   ar
    15    12     9    1
    16    12    13    1
    17    13    14    1
    18    14    15    1
    19    15    16    1
    20    16    17    1
    21     9    10   ar
    22    10    11   ar
    23    11     1   ar
    24    10     5   ar
    25    26    24    1
    26    17    12    1
    27    19    22    1
    28    19    23    1
    29    16    18    1
@<TRIPOS>MOLECULE
*****
 26 29 0 0 0
SMALL
GASTEIGER

@<TRIPOS>ATOM
      1 C         140.0714  141.1195  168.9103 C.ar    1  UNL1        0.1366
      2 C         139.0985  139.9982  168.6958 C.ar    1  UNL1        0.0353
      3 C         138.7754  139.5416  167.3040 C.ar    1  UNL1        0.0630
      4 CL        137.8024  138.4202  167.0895 Cl      1  UNL1       -0.0821
      5 C         139.4252  140.2062  166.1268 C.ar    1  UNL1        0.0564
      6 C         139.3039  139.9740  164.6498 C.ar    1  UNL1        0.0730
      7 CL        138.4369  138.9447  163.9875 Cl      1  UNL1       -0.0810
      8 C         140.2019  140.9518  163.9516 C.ar    1  UNL1        0.0486
      9 N         140.8781  141.7884  164.9969 N.ar    1  UNL1       -0.3160
     10 C         140.3981  141.3275  166.3413 C.ar    1  UNL1        0.1453
     11 N         140.7212  141.7842  167.7331 N.ar    1  UNL1       -0.2236
     12 C         141.8617  142.8919  164.7427 C.3     1  UNL1        0.1023
     13 C         141.4073  144.1678  164.0979 C.3     1  UNL1        0.0254
     14 C         142.3910  145.2713  163.8436 C.3     1  UNL1        0.0191
     15 C         143.8289  145.0990  164.2342 C.3     1  UNL1        0.0687
     16 N         144.2833  143.8232  164.8790 N.3     1  UNL1       -0.2959
     17 C         143.2997  142.7197  165.1332 C.3     1  UNL1        0.0914
     18 H         144.6824  144.0760  165.7830 H       1  UNL1        0.1233
     19 N         140.5518  140.5705  171.4039 N.am    1  UNL1       -0.3241
     20 C         140.3945  141.5762  170.3021 C.2     1  UNL1        0.2606
     21 O         140.5603  143.0384  170.5922 O.2     1  UNL1       -0.2687
     22 H         140.7639  140.8702  172.3173 H       1  UNL1        0.1453
     23 H         140.4430  139.6107  171.2135 H       1  UNL1        0.1453
     24 C         140.3905  141.0719  162.4683 C.3     1  UNL1        0.0392
     25 C         141.0725  141.7066  161.2926 C.3     1  UNL1        0.0063
     26 C         140.0352  140.6452  161.0749 C.3     1  UNL1        0.0063
@<TRIPOS>BOND
     1    19    20   am
     2    20    21    2
     3    20     1    1
     4     1     2   ar
     5     2     3   ar
     6     3     4    1
     7     3     5   ar
     8     5     6   ar
     9     6     7    1
    10     6     8   ar
    11     8    24    1
    12    24    25    1
    13    25    26    1
    14     8     9   ar
    15    12     9    1
    16    12    13    1
    17    13    14    1
    18    14    15    1
    19    15    16    1
    20    16    17    1
    21     9    10   ar
    22    10    11   ar
    23    11     1   ar
    24    10     5   ar
    25    26    24    1
    26    17    12    1
    27    19    22    1
    28    19    23    1
    29    16    18    1
@<TRIPOS>MOLECULE
*****
 26 29 0 0 0
SMALL
GASTEIGER

@<TRIPOS>ATOM
      1 C         139.6971  144.0765  162.4079 C.ar    1  UNL1        0.1366
      2 C         139.0663  144.8353  163.5376 C.ar    1  UNL1        0.0353
      3 C         139.3180  144.4160  164.9556 C.ar    1  UNL1        0.0630
      4 CL        138.6870  145.1748  166.0853 Cl      1  UNL1       -0.0821
      5 C         140.2005  143.2379  165.2439 C.ar    1  UNL1        0.0564
      6 C         140.6284  142.5952  166.5300 C.ar    1  UNL1        0.0730
      7 CL        140.2307  143.0319  167.9088 Cl      1  UNL1       -0.0810
      8 C         141.5237  141.4392  166.1951 C.ar    1  UNL1        0.0486
      9 N         141.6491  141.3674  164.7021 N.ar    1  UNL1       -0.3160
     10 C         140.8313  142.4791  164.1143 C.ar    1  UNL1        0.1453
     11 N         140.5797  142.8984  162.6962 N.ar    1  UNL1       -0.2236
     12 C         142.4515  140.3608  163.9321 C.3     1  UNL1        0.1023
     13 C         141.7734  139.1711  163.3198 C.3     1  UNL1        0.0254
     14 C         142.5758  138.1646  162.5498 C.3     1  UNL1        0.0191
     15 C         144.0562  138.3476  162.3921 C.3     1  UNL1        0.0687
     16 N         144.7343  139.5372  163.0045 N.3     1  UNL1       -0.2959
     17 C         143.9319  140.5438  163.7744 C.3     1  UNL1        0.0914
     18 H         145.1875  140.0422  162.2429 H       1  UNL1        0.1233
     19 N         139.7461  145.9007  160.5586 N.am    1  UNL1       -0.3241
     20 C         139.4455  144.4958  160.9898 C.2     1  UNL1        0.2606
     21 O         138.8932  143.5103  160.0031 O.2     1  UNL1       -0.2687
     22 H         139.5809  146.1759  159.6278 H       1  UNL1        0.1453
     23 H         140.1085  146.5475  161.2062 H       1  UNL1        0.1453
     24 C         142.1785  140.5169  167.1803 C.3     1  UNL1        0.0392
     25 C         142.7761  139.1813  167.5107 C.3     1  UNL1        0.0063
     26 C         142.7151  140.2551  168.5563 C.3     1  UNL1        0.0063
@<TRIPOS>BOND
     1    19    20   am
     2    20    21    2
     3    20     1    1
     4     1     2   ar
     5     2     3   ar
     6     3     4    1
     7     3     5   ar
     8     5     6   ar
     9     6     7    1
    10     6     8   ar
    11     8    24    1
    12    24    25    1
    13    25    26    1
    14     8     9   ar
    15    12     9    1
    16    12    13    1
    17    13    14    1
    18    14    15    1
    19    15    16    1
    20    16    17    1
    21     9    10   ar
    22    10    11   ar
    23    11     1   ar
    24    10     5   ar
    25    26    24    1
    26    17    12    1
    27    19    22    1
    28    19    23    1
    29    16    18    1
@<TRIPOS>MOLECULE
*****
 26 29 0 0 0
SMALL
GASTEIGER

@<TRIPOS>ATOM
      1 C         141.5342  140.0988  169.0143 C.ar    1  UNL1        0.1366
      2 C         142.6123  139.1042  168.7011 C.ar    1  UNL1        0.0353
      3 C         143.0139  138.8568  167.2771 C.ar    1  UNL1        0.0630
      4 CL        144.0921  137.8621  166.9639 Cl      1  UNL1       -0.0821
      5 C         142.3372  139.6040  166.1664 C.ar    1  UNL1        0.0564
      6 C         142.5192  139.5711  164.6779 C.ar    1  UNL1        0.0730
      7 CL        143.4956  138.7143  163.9278 Cl      1  UNL1       -0.0810
      8 C         141.5535  140.5454  164.0711 C.ar    1  UNL1        0.0486
      9 N         140.7746  141.1805  165.1847 N.ar    1  UNL1       -0.3160
     10 C         141.2590  140.5986  166.4797 C.ar    1  UNL1        0.1453
     11 N         140.8575  140.8460  167.9036 N.ar    1  UNL1       -0.2236
     12 C         139.7001  142.2156  165.0304 C.3     1  UNL1        0.1023
     13 C         140.0057  143.6596  165.2978 C.3     1  UNL1        0.0254
     14 C         138.9311  144.6947  165.1435 C.3     1  UNL1        0.0191
     15 C         137.5509  144.2858  164.7218 C.3     1  UNL1        0.0687
     16 N         137.2453  142.8418  164.4544 N.3     1  UNL1       -0.2959
     17 C         138.3198  141.8068  164.6087 C.3     1  UNL1        0.0914
     18 H         136.9169  142.7840  163.4904 H       1  UNL1        0.1233
     19 N         139.9855  139.5874  171.0367 N.am    1  UNL1       -0.3241
     20 C         141.1326  140.3462  170.4382 C.2     1  UNL1        0.2606
     21 O         141.8783  141.3524  171.2637 O.2     1  UNL1       -0.2687
     22 H         139.7220  139.7498  171.9712 H       1  UNL1        0.1453
     23 H         139.4961  138.9270  170.4949 H       1  UNL1        0.1453
     24 C         141.3946  140.8340  162.6077 C.3     1  UNL1        0.0392
     25 C         141.9987  141.1758  161.2779 C.3     1  UNL1        0.0063
     26 C         140.5153  140.9920  161.4028 C.3     1  UNL1        0.0063
@<TRIPOS>BOND
     1    19    20   am
     2    20    21    2
     3    20     1    1
     4     1     2   ar
     5     2     3   ar
     6     3     4    1
     7     3     5   ar
     8     5     6   ar
     9     6     7    1
    10     6     8   ar
    11     8    24    1
    12    24    25    1
    13    25    26    1
    14     8     9   ar
    15    12     9    1
    16    12    13    1
    17    13    14    1
    18    14    15    1
    19    15    16    1
    20    16    17    1
    21     9    10   ar
    22    10    11   ar
    23    11     1   ar
    24    10     5   ar
    25    26    24    1
    26    17    12    1
    27    19    22    1
    28    19    23    1
    29    16    18    1
