@<TRIPOS>MOLECULE
*****
 41 46 0 0 0
SMALL
GASTEIGER

@<TRIPOS>ATOM
      1 C         139.2377  138.1048  164.7678 C.3     1  UNL1        0.1154
      2 C         138.8117  138.1307  163.3298 C.3     1  UNL1        0.0310
      3 C         139.8157  137.8735  162.2454 C.3     1  UNL1        0.0194
      4 C         141.2457  137.5905  162.5990 C.3     1  UNL1        0.0700
      5 C         141.6717  137.5646  164.0371 C.3     1  UNL1        0.0194
      6 C         140.6677  137.8217  165.1214 C.3     1  UNL1        0.0310
      7 C         140.7317  137.7254  163.2280 C.3     1  UNL1        0.1563
      8 O         139.8238  137.9579  164.2084 O.3     1  UNL1       -0.3549
      9 C         138.2337  138.3619  165.8522 C.3     1  UNL1        0.1150
     10 C         138.2534  136.9067  166.2154 C.3     1  UNL1        0.0321
     11 O         137.2298  138.6190  166.9366 O.3     1  UNL1       -0.3841
     12 H         137.6435  139.1383  167.6437 H       1  UNL1        0.2103
     13 C         138.2141  139.8171  165.4889 C.3     1  UNL1        0.0595
     14 C         139.3407  140.2012  169.8286 C.ar    1  UNL1        0.2250
     15 C         140.4795  141.0903  170.2320 C.ar    1  UNL1        0.0593
     16 C         141.2427  141.8514  169.1889 C.ar    1  UNL1        0.0254
     17 C         140.8671  141.7234  167.7423 C.ar    1  UNL1        0.0990
     18 N         141.6303  142.4845  166.6991 N.ar    1  UNL1       -0.2400
     19 C         141.2548  142.3565  165.2525 C.ar    1  UNL1        0.1281
     20 C         140.1161  141.4674  164.8491 C.ar    1  UNL1        0.1567
     21 F         139.7405  141.3393  163.4025 F       1  UNL1       -0.2028
     22 C         139.3528  140.7062  165.8923 C.ar    1  UNL1        0.0285
     23 C         139.7284  140.8343  167.3389 C.ar    1  UNL1        0.1002
     24 N         138.9652  140.0731  168.3821 N.ar    1  UNL1       -0.2104
     25 C         137.0947  139.2602  170.7342 C.3     1  UNL1        0.2542
     26 O         138.5775  139.4401  170.8718 O.3     1  UNL1       -0.4561
     27 N         142.2497  137.3334  161.5146 N.3     1  UNL1       -0.2926
     28 H         141.7604  137.4480  160.6271 H       1  UNL1        0.1236
     29 C         143.4952  138.1654  161.4330 C.3     1  UNL1        0.1152
     30 C         143.4368  139.6341  161.7320 C.ar    1  UNL1        0.0765
     31 C         142.7288  140.5635  160.7912 C.ar    1  UNL1        0.0193
     32 C         142.6705  142.0322  161.0902 C.ar    1  UNL1        0.0411
     33 C         143.3202  142.5716  162.3299 C.ar    1  UNL1        0.1708
     34 C         144.0282  141.6423  163.2707 C.ar    1  UNL1        0.1682
     35 N         144.0865  140.1736  162.9717 N.ar    1  UNL1       -0.2304
     36 N         144.6779  142.1817  164.5104 N.am    1  UNL1       -0.2639
     37 C         144.6196  143.6505  164.8094 C.2     1  UNL1        0.2718
     38 O         145.2693  144.1899  166.0491 O.2     1  UNL1       -0.2707
     39 C         143.9116  144.5798  163.8686 C.3     1  UNL1        0.2898
     40 O         143.2619  144.0404  162.6288 O.3     1  UNL1       -0.4628
     41 H         145.1426  141.5717  165.1278 H       1  UNL1        0.1565
@<TRIPOS>BOND
     1    25    26    1
     2    26    14    1
     3    14    15   ar
     4    15    16   ar
     5    16    17   ar
     6    17    18   ar
     7    18    19   ar
     8    19    20   ar
     9    20    21    1
    10    20    22   ar
    11    22    13    1
    12    13     9    1
    13     9    10    1
    14     9    11    1
    15     9     1    1
    16     1     2    1
    17     2     3    1
    18     3     4    1
    19     4    27    1
    20    27    29    1
    21    29    30    1
    22    30    31   ar
    23    31    32   ar
    24    32    33   ar
    25    33    34   ar
    26    34    35   ar
    27    34    36    1
    28    36    37   am
    29    37    38    2
    30    37    39    1
    31    39    40    1
    32     4     5    1
    33     5     6    1
    34     4     7    1
    35     7     8    1
    36    22    23   ar
    37    23    24   ar
    38    24    14   ar
    39    23    17   ar
    40     6     1    1
    41     8     1    1
    42    35    30   ar
    43    40    33    1
    44    11    12    1
    45    27    28    1
    46    36    41    1
@<TRIPOS>MOLECULE
*****
 41 46 0 0 0
SMALL
GASTEIGER

@<TRIPOS>ATOM
      1 C         139.2274  138.1534  164.6335 C.3     1  UNL1        0.1154
      2 C         138.7882  138.1954  163.1998 C.3     1  UNL1        0.0310
      3 C         139.7754  137.9193  162.1046 C.3     1  UNL1        0.0194
      4 C         141.2016  137.6013  162.4431 C.3     1  UNL1        0.0700
      5 C         141.6408  137.5592  163.8768 C.3     1  UNL1        0.0194
      6 C         140.6537  137.8353  164.9719 C.3     1  UNL1        0.0310
      7 C         140.6970  137.7455  163.0776 C.3     1  UNL1        0.1563
      8 O         139.8045  137.9951  164.0678 O.3     1  UNL1       -0.3549
      9 C         138.2403  138.4294  165.7287 C.3     1  UNL1        0.1150
     10 C         138.3388  137.0015  166.1773 C.3     1  UNL1        0.0321
     11 O         137.2533  138.7054  166.8238 O.3     1  UNL1       -0.3841
     12 H         137.6596  139.2854  167.4867 H       1  UNL1        0.2103
     13 C         138.1419  139.8574  165.2800 C.3     1  UNL1        0.0595
     14 C         139.1690  143.3647  162.6544 C.ar    1  UNL1        0.2250
     15 C         140.1924  144.3646  163.1049 C.ar    1  UNL1        0.0593
     16 C         140.8734  144.1954  164.4306 C.ar    1  UNL1        0.0254
     17 C         140.5310  143.0262  165.3059 C.ar    1  UNL1        0.0990
     18 N         141.2120  142.8570  166.6316 N.ar    1  UNL1       -0.2400
     19 C         140.8697  141.6879  167.5069 C.ar    1  UNL1        0.1281
     20 C         139.8463  140.6880  167.0563 C.ar    1  UNL1        0.1567
     21 F         139.5039  139.5189  167.9315 F       1  UNL1       -0.2028
     22 C         139.1653  140.8573  165.7305 C.ar    1  UNL1        0.0285
     23 C         139.5077  142.0263  164.8554 C.ar    1  UNL1        0.1002
     24 N         138.8267  142.1956  163.5296 N.ar    1  UNL1       -0.2104
     25 C         138.3948  142.3756  160.3801 C.3     1  UNL1        0.2542
     26 O         138.4880  143.5339  161.3287 O.3     1  UNL1       -0.4561
     27 N         142.1888  137.3252  161.3479 N.3     1  UNL1       -0.2926
     28 H         141.7235  137.5502  160.4685 H       1  UNL1        0.1236
     29 C         143.5101  138.0350  161.3327 C.3     1  UNL1        0.1152
     30 C         143.5622  139.5260  161.4879 C.ar    1  UNL1        0.0765
     31 C         143.2388  140.4132  160.3225 C.ar    1  UNL1        0.0193
     32 C         143.2909  141.9043  160.4777 C.ar    1  UNL1        0.0411
     33 C         143.6665  142.5081  161.7984 C.ar    1  UNL1        0.1708
     34 C         143.9900  141.6209  162.9639 C.ar    1  UNL1        0.1682
     35 N         143.9378  140.1299  162.8087 N.ar    1  UNL1       -0.2304
     36 N         144.3656  142.2248  164.2846 N.am    1  UNL1       -0.2639
     37 C         144.4177  143.7159  164.4399 C.2     1  UNL1        0.2718
     38 O         144.7933  144.3197  165.7606 O.2     1  UNL1       -0.2707
     39 C         144.0943  144.6030  163.2744 C.3     1  UNL1        0.2898
     40 O         143.7187  143.9991  161.9537 O.3     1  UNL1       -0.4628
     41 H         144.5779  141.6425  165.0495 H       1  UNL1        0.1565
@<TRIPOS>BOND
     1    25    26    1
     2    26    14    1
     3    14    15   ar
     4    15    16   ar
     5    16    17   ar
     6    17    18   ar
     7    18    19   ar
     8    19    20   ar
     9    20    21    1
    10    20    22   ar
    11    22    13    1
    12    13     9    1
    13     9    10    1
    14     9    11    1
    15     9     1    1
    16     1     2    1
    17     2     3    1
    18     3     4    1
    19     4    27    1
    20    27    29    1
    21    29    30    1
    22    30    31   ar
    23    31    32   ar
    24    32    33   ar
    25    33    34   ar
    26    34    35   ar
    27    34    36    1
    28    36    37   am
    29    37    38    2
    30    37    39    1
    31    39    40    1
    32     4     5    1
    33     5     6    1
    34     4     7    1
    35     7     8    1
    36    22    23   ar
    37    23    24   ar
    38    24    14   ar
    39    23    17   ar
    40     6     1    1
    41     8     1    1
    42    35    30   ar
    43    40    33    1
    44    11    12    1
    45    27    28    1
    46    36    41    1
@<TRIPOS>MOLECULE
*****
 41 46 0 0 0
SMALL
GASTEIGER

@<TRIPOS>ATOM
      1 C         140.1835  143.4252  162.3647 C.3     1  UNL1        0.1154
      2 C         140.1894  143.3923  163.8643 C.3     1  UNL1        0.0310
      3 C         139.3709  142.3696  164.5953 C.3     1  UNL1        0.0194
      4 C         138.5465  141.3800  163.8266 C.3     1  UNL1        0.0700
      5 C         138.5405  141.4129  162.3270 C.3     1  UNL1        0.0194
      6 C         139.3590  142.4355  161.5961 C.3     1  UNL1        0.0310
      7 C         138.9788  141.9217  163.3821 C.3     1  UNL1        0.1563
      8 O         139.7189  142.8463  162.7212 O.3     1  UNL1       -0.3549
      9 C         141.0020  144.4478  161.6337 C.3     1  UNL1        0.1150
     10 C         140.0211  145.5129  162.0255 C.3     1  UNL1        0.0321
     11 O         141.8205  145.4704  160.9028 O.3     1  UNL1       -0.3841
     12 H         142.6584  145.6089  161.3713 H       1  UNL1        0.2103
     13 C         141.9828  143.3826  161.2420 C.3     1  UNL1        0.0595
     14 C         142.1189  138.9414  161.9538 C.ar    1  UNL1        0.2250
     15 C         143.0582  138.3741  162.9765 C.ar    1  UNL1        0.0593
     16 C         143.9523  139.2873  163.7618 C.ar    1  UNL1        0.0254
     17 C         143.9069  140.7678  163.5246 C.ar    1  UNL1        0.0990
     18 N         144.8010  141.6809  164.3099 N.ar    1  UNL1       -0.2400
     19 C         144.7556  143.1614  164.0727 C.ar    1  UNL1        0.1281
     20 C         143.8163  143.7286  163.0500 C.ar    1  UNL1        0.1567
     21 F         143.7709  145.2090  162.8128 F       1  UNL1       -0.2028
     22 C         142.9222  142.8154  162.2646 C.ar    1  UNL1        0.0285
     23 C         142.9676  141.3350  162.5019 C.ar    1  UNL1        0.1002
     24 N         142.0735  140.4218  161.7165 N.ar    1  UNL1       -0.2104
     25 C         139.7434  138.0445  161.4035 C.3     1  UNL1        0.2542
     26 O         141.2248  138.0283  161.1685 O.3     1  UNL1       -0.4561
     27 N         137.7279  140.3573  164.5576 N.3     1  UNL1       -0.2926
     28 H         137.1049  139.9329  163.8705 H       1  UNL1        0.1236
     29 C         138.4058  139.2317  165.2810 C.3     1  UNL1        0.1152
     30 C         139.4910  139.5242  166.2743 C.ar    1  UNL1        0.0765
     31 C         140.9133  139.1674  165.9581 C.ar    1  UNL1        0.0193
     32 C         141.9985  139.4600  166.9515 C.ar    1  UNL1        0.0411
     33 C         141.6615  140.1093  168.2610 C.ar    1  UNL1        0.1708
     34 C         140.2392  140.4660  168.5772 C.ar    1  UNL1        0.1682
     35 N         139.1540  140.1735  167.5838 N.ar    1  UNL1       -0.2304
     36 N         139.9022  141.1153  169.8866 N.am    1  UNL1       -0.2639
     37 C         140.9874  141.4079  170.8800 C.2     1  UNL1        0.2718
     38 O         140.6504  142.0572  172.1895 O.2     1  UNL1       -0.2707
     39 C         142.4097  141.0511  170.5639 C.3     1  UNL1        0.2898
     40 O         142.7467  140.4018  169.2543 O.3     1  UNL1       -0.4628
     41 H         138.9687  141.3495  170.0941 H       1  UNL1        0.1565
@<TRIPOS>BOND
     1    25    26    1
     2    26    14    1
     3    14    15   ar
     4    15    16   ar
     5    16    17   ar
     6    17    18   ar
     7    18    19   ar
     8    19    20   ar
     9    20    21    1
    10    20    22   ar
    11    22    13    1
    12    13     9    1
    13     9    10    1
    14     9    11    1
    15     9     1    1
    16     1     2    1
    17     2     3    1
    18     3     4    1
    19     4    27    1
    20    27    29    1
    21    29    30    1
    22    30    31   ar
    23    31    32   ar
    24    32    33   ar
    25    33    34   ar
    26    34    35   ar
    27    34    36    1
    28    36    37   am
    29    37    38    2
    30    37    39    1
    31    39    40    1
    32     4     5    1
    33     5     6    1
    34     4     7    1
    35     7     8    1
    36    22    23   ar
    37    23    24   ar
    38    24    14   ar
    39    23    17   ar
    40     6     1    1
    41     8     1    1
    42    35    30   ar
    43    40    33    1
    44    11    12    1
    45    27    28    1
    46    36    41    1
@<TRIPOS>MOLECULE
*****
 41 46 0 0 0
SMALL
GASTEIGER

@<TRIPOS>ATOM
      1 C         143.7042  141.6753  164.2256 C.3     1  UNL1        0.1154
      2 C         143.1341  142.2553  165.4860 C.3     1  UNL1        0.0310
      3 C         142.1952  143.4231  165.4165 C.3     1  UNL1        0.0194
      4 C         141.8265  144.0109  164.0866 C.3     1  UNL1        0.0700
      5 C         142.3966  143.4309  162.8262 C.3     1  UNL1        0.0194
      6 C         143.3354  142.2631  162.8957 C.3     1  UNL1        0.0310
      7 C         142.3448  143.3712  164.0744 C.3     1  UNL1        0.1563
      8 O         143.1937  142.3153  164.1373 O.3     1  UNL1       -0.3549
      9 C         144.6431  140.5076  164.2950 C.3     1  UNL1        0.1150
     10 C         145.7088  141.3246  163.6267 C.3     1  UNL1        0.0321
     11 O         145.5819  139.3398  164.3645 O.3     1  UNL1       -0.3841
     12 H         145.8265  139.1761  165.2888 H       1  UNL1        0.2103
     13 C         143.5773  139.6905  164.9634 C.3     1  UNL1        0.0595
     14 C         139.4356  139.0063  166.5845 C.ar    1  UNL1        0.2250
     15 C         138.4163  138.2816  165.7563 C.ar    1  UNL1        0.0593
     16 C         138.7775  137.7850  164.3878 C.ar    1  UNL1        0.0254
     17 C         140.1581  138.0131  163.8474 C.ar    1  UNL1        0.0990
     18 N         140.5193  137.5165  162.4789 N.ar    1  UNL1       -0.2400
     19 C         141.9000  137.7445  161.9385 C.ar    1  UNL1        0.1281
     20 C         142.9193  138.4692  162.7666 C.ar    1  UNL1        0.1567
     21 F         144.2998  138.6973  162.2263 F       1  UNL1       -0.2028
     22 C         142.5580  138.9658  164.1352 C.ar    1  UNL1        0.0285
     23 C         141.1774  138.7378  164.6756 C.ar    1  UNL1        0.1002
     24 N         140.8161  139.2344  166.0441 N.ar    1  UNL1       -0.2104
     25 C         139.9156  140.5531  168.6160 C.3     1  UNL1        0.2542
     26 O         139.0743  139.5029  167.9530 O.3     1  UNL1       -0.4561
     27 N         140.8876  145.1787  164.0171 N.3     1  UNL1       -0.2926
     28 H         141.1568  145.7246  163.1987 H       1  UNL1        0.1236
     29 C         139.4090  144.9473  163.9161 C.3     1  UNL1        0.1152
     30 C         138.8881  143.6335  163.4136 C.ar    1  UNL1        0.0765
     31 C         138.3288  142.6301  164.3781 C.ar    1  UNL1        0.0193
     32 C         137.8079  141.3162  163.8756 C.ar    1  UNL1        0.0411
     33 C         137.8464  141.0058  162.4086 C.ar    1  UNL1        0.1708
     34 C         138.4058  142.0091  161.4441 C.ar    1  UNL1        0.1682
     35 N         138.9267  143.3230  161.9466 N.ar    1  UNL1       -0.2304
     36 N         138.4443  141.6987  159.9771 N.am    1  UNL1       -0.2639
     37 C         137.9235  140.3848  159.4746 C.2     1  UNL1        0.2718
     38 O         137.9620  140.0743  158.0076 O.2     1  UNL1       -0.2707
     39 C         137.3641  139.3814  160.4391 C.3     1  UNL1        0.2898
     40 O         137.3256  139.6919  161.9062 O.3     1  UNL1       -0.4628
     41 H         138.8115  142.3573  159.3441 H       1  UNL1        0.1565
@<TRIPOS>BOND
     1    25    26    1
     2    26    14    1
     3    14    15   ar
     4    15    16   ar
     5    16    17   ar
     6    17    18   ar
     7    18    19   ar
     8    19    20   ar
     9    20    21    1
    10    20    22   ar
    11    22    13    1
    12    13     9    1
    13     9    10    1
    14     9    11    1
    15     9     1    1
    16     1     2    1
    17     2     3    1
    18     3     4    1
    19     4    27    1
    20    27    29    1
    21    29    30    1
    22    30    31   ar
    23    31    32   ar
    24    32    33   ar
    25    33    34   ar
    26    34    35   ar
    27    34    36    1
    28    36    37   am
    29    37    38    2
    30    37    39    1
    31    39    40    1
    32     4     5    1
    33     5     6    1
    34     4     7    1
    35     7     8    1
    36    22    23   ar
    37    23    24   ar
    38    24    14   ar
    39    23    17   ar
    40     6     1    1
    41     8     1    1
    42    35    30   ar
    43    40    33    1
    44    11    12    1
    45    27    28    1
    46    36    41    1
@<TRIPOS>MOLECULE
*****
 41 46 0 0 0
SMALL
GASTEIGER

@<TRIPOS>ATOM
      1 C         139.1943  138.0683  164.8154 C.3     1  UNL1        0.1154
      2 C         140.6396  137.8205  165.1312 C.3     1  UNL1        0.0310
      3 C         141.6140  137.5513  164.0230 C.3     1  UNL1        0.0194
      4 C         141.1432  137.5299  162.5990 C.3     1  UNL1        0.0700
      5 C         139.6979  137.7777  162.2831 C.3     1  UNL1        0.0194
      6 C         138.7235  138.0469  163.3913 C.3     1  UNL1        0.0310
      7 C         140.5721  137.6818  163.1724 C.3     1  UNL1        0.1563
      8 O         139.6911  137.9252  164.1744 O.3     1  UNL1       -0.3549
      9 C         138.2199  138.3375  165.9235 C.3     1  UNL1        0.1150
     10 C         138.1350  136.8669  166.2061 C.3     1  UNL1        0.0321
     11 O         137.2455  138.6067  167.0316 O.3     1  UNL1       -0.3841
     12 H         137.7014  139.0543  167.7614 H       1  UNL1        0.2103
     13 C         138.3049  139.8082  165.6409 C.3     1  UNL1        0.0595
     14 C         139.3799  140.1008  170.0007 C.ar    1  UNL1        0.2250
     15 C         140.5916  140.8770  170.4240 C.ar    1  UNL1        0.0593
     16 C         141.4450  141.5558  169.3940 C.ar    1  UNL1        0.0254
     17 C         141.0867  141.4583  167.9406 C.ar    1  UNL1        0.0990
     18 N         141.9401  142.1370  166.9106 N.ar    1  UNL1       -0.2400
     19 C         141.5818  142.0395  165.4572 C.ar    1  UNL1        0.1281
     20 C         140.3700  141.2632  165.0340 C.ar    1  UNL1        0.1567
     21 F         140.0117  141.1657  163.5807 F       1  UNL1       -0.2028
     22 C         139.5166  140.5845  166.0641 C.ar    1  UNL1        0.0285
     23 C         139.8750  140.6820  167.5174 C.ar    1  UNL1        0.1002
     24 N         139.0215  140.0033  168.5475 N.ar    1  UNL1       -0.2104
     25 C         137.0703  139.1848  170.7602 C.3     1  UNL1        0.2542
     26 O         138.5265  139.4221  171.0308 O.3     1  UNL1       -0.4561
     27 N         142.1176  137.2607  161.4908 N.3     1  UNL1       -0.2926
     28 H         141.8619  136.3600  161.0862 H       1  UNL1        0.1236
     29 C         142.2427  138.2275  160.3508 C.3     1  UNL1        0.1152
     30 C         142.4131  139.6923  160.6250 C.ar    1  UNL1        0.0765
     31 C         143.7776  140.2494  160.9038 C.ar    1  UNL1        0.0193
     32 C         143.9480  141.7143  161.1780 C.ar    1  UNL1        0.0411
     33 C         142.7538  142.6220  161.1734 C.ar    1  UNL1        0.1708
     34 C         141.3893  142.0649  160.8946 C.ar    1  UNL1        0.1682
     35 N         141.2189  140.6001  160.6204 N.ar    1  UNL1       -0.2304
     36 N         140.1952  142.9726  160.8900 N.am    1  UNL1       -0.2639
     37 C         140.3655  144.4375  161.1643 C.2     1  UNL1        0.2718
     38 O         139.1714  145.3452  161.1597 O.2     1  UNL1       -0.2707
     39 C         141.7300  144.9946  161.4431 C.3     1  UNL1        0.2898
     40 O         142.9242  144.0869  161.4476 O.3     1  UNL1       -0.4628
     41 H         139.2996  142.6070  160.7071 H       1  UNL1        0.1565
@<TRIPOS>BOND
     1    25    26    1
     2    26    14    1
     3    14    15   ar
     4    15    16   ar
     5    16    17   ar
     6    17    18   ar
     7    18    19   ar
     8    19    20   ar
     9    20    21    1
    10    20    22   ar
    11    22    13    1
    12    13     9    1
    13     9    10    1
    14     9    11    1
    15     9     1    1
    16     1     2    1
    17     2     3    1
    18     3     4    1
    19     4    27    1
    20    27    29    1
    21    29    30    1
    22    30    31   ar
    23    31    32   ar
    24    32    33   ar
    25    33    34   ar
    26    34    35   ar
    27    34    36    1
    28    36    37   am
    29    37    38    2
    30    37    39    1
    31    39    40    1
    32     4     5    1
    33     5     6    1
    34     4     7    1
    35     7     8    1
    36    22    23   ar
    37    23    24   ar
    38    24    14   ar
    39    23    17   ar
    40     6     1    1
    41     8     1    1
    42    35    30   ar
    43    40    33    1
    44    11    12    1
    45    27    28    1
    46    36    41    1
@<TRIPOS>MOLECULE
*****
 41 46 0 0 0
SMALL
GASTEIGER

@<TRIPOS>ATOM
      1 C         141.5991  138.4537  161.8339 C.3     1  UNL1        0.1154
      2 C         142.2414  138.1158  163.1466 C.3     1  UNL1        0.0310
      3 C         141.3931  137.6982  164.3112 C.3     1  UNL1        0.0194
      4 C         139.9026  137.6187  164.1630 C.3     1  UNL1        0.0700
      5 C         139.2603  137.9567  162.8503 C.3     1  UNL1        0.0194
      6 C         140.1085  138.3742  161.6858 C.3     1  UNL1        0.0310
      7 C         140.3259  137.8525  163.4966 C.3     1  UNL1        0.1563
      8 O         141.0929  138.2300  162.4437 O.3     1  UNL1       -0.3549
      9 C         142.4473  138.8712  160.6694 C.3     1  UNL1        0.1150
     10 C         142.8698  137.4464  160.4663 C.3     1  UNL1        0.0321
     11 O         143.2955  139.2887  159.5048 O.3     1  UNL1       -0.3841
     12 H         142.7242  139.5682  158.7724 H       1  UNL1        0.2103
     13 C         142.0247  140.2961  160.8725 C.3     1  UNL1        0.0595
     14 C         139.9075  143.5988  163.0769 C.ar    1  UNL1        0.2250
     15 C         140.6708  144.4802  164.0206 C.ar    1  UNL1        0.0593
     16 C         142.1399  144.2607  164.2294 C.ar    1  UNL1        0.0254
     17 C         142.8457  143.1598  163.4946 C.ar    1  UNL1        0.0990
     18 N         144.3147  142.9403  163.7034 N.ar    1  UNL1       -0.2400
     19 C         145.0205  141.8394  162.9686 C.ar    1  UNL1        0.1281
     20 C         144.2572  140.9580  162.0249 C.ar    1  UNL1        0.1567
     21 F         144.9629  139.8571  161.2901 F       1  UNL1       -0.2028
     22 C         142.7881  141.1775  161.8161 C.ar    1  UNL1        0.0285
     23 C         142.0823  142.2784  162.5509 C.ar    1  UNL1        0.1002
     24 N         140.6132  142.4979  162.3421 N.ar    1  UNL1       -0.2104
     25 C         137.4749  142.6864  163.0696 C.3     1  UNL1        0.2542
     26 O         138.4384  143.8183  162.8681 O.3     1  UNL1       -0.4561
     27 N         139.0543  137.2012  165.3276 N.3     1  UNL1       -0.2926
     28 H         139.6829  136.7890  166.0170 H       1  UNL1        0.1236
     29 C         138.2231  138.2178  166.0526 C.3     1  UNL1        0.1152
     30 C         138.8741  139.4286  166.6527 C.ar    1  UNL1        0.0765
     31 C         139.4120  140.5096  165.7627 C.ar    1  UNL1        0.0193
     32 C         140.0630  141.7204  166.3629 C.ar    1  UNL1        0.0411
     33 C         140.1760  141.8503  167.8530 C.ar    1  UNL1        0.1708
     34 C         139.6381  140.7693  168.7429 C.ar    1  UNL1        0.1682
     35 N         138.9871  139.5584  168.1429 N.ar    1  UNL1       -0.2304
     36 N         139.7511  140.8991  170.2330 N.am    1  UNL1       -0.2639
     37 C         140.4021  142.1099  170.8332 C.2     1  UNL1        0.2718
     38 O         140.5151  142.2397  172.3232 O.2     1  UNL1       -0.2707
     39 C         140.9400  143.1909  169.9432 C.3     1  UNL1        0.2898
     40 O         140.8270  143.0611  168.4530 O.3     1  UNL1       -0.4628
     41 H         139.3980  140.1896  170.8171 H       1  UNL1        0.1565
@<TRIPOS>BOND
     1    25    26    1
     2    26    14    1
     3    14    15   ar
     4    15    16   ar
     5    16    17   ar
     6    17    18   ar
     7    18    19   ar
     8    19    20   ar
     9    20    21    1
    10    20    22   ar
    11    22    13    1
    12    13     9    1
    13     9    10    1
    14     9    11    1
    15     9     1    1
    16     1     2    1
    17     2     3    1
    18     3     4    1
    19     4    27    1
    20    27    29    1
    21    29    30    1
    22    30    31   ar
    23    31    32   ar
    24    32    33   ar
    25    33    34   ar
    26    34    35   ar
    27    34    36    1
    28    36    37   am
    29    37    38    2
    30    37    39    1
    31    39    40    1
    32     4     5    1
    33     5     6    1
    34     4     7    1
    35     7     8    1
    36    22    23   ar
    37    23    24   ar
    38    24    14   ar
    39    23    17   ar
    40     6     1    1
    41     8     1    1
    42    35    30   ar
    43    40    33    1
    44    11    12    1
    45    27    28    1
    46    36    41    1
@<TRIPOS>MOLECULE
*****
 41 46 0 0 0
SMALL
GASTEIGER

@<TRIPOS>ATOM
      1 C         139.9412  143.5877  163.5478 C.3     1  UNL1        0.1154
      2 C         141.0045  143.3530  162.5161 C.3     1  UNL1        0.0310
      3 C         142.3611  142.8682  162.9342 C.3     1  UNL1        0.0194
      4 C         142.6544  142.6183  164.3838 C.3     1  UNL1        0.0700
      5 C         141.5911  142.8530  165.4155 C.3     1  UNL1        0.0194
      6 C         140.2345  143.3377  164.9975 C.3     1  UNL1        0.0310
      7 C         141.8962  142.8835  164.2030 C.3     1  UNL1        0.1563
      8 O         140.6696  143.3218  163.8250 O.3     1  UNL1       -0.3549
      9 C         138.5846  144.0725  163.1298 C.3     1  UNL1        0.1150
     10 C         139.2021  145.3216  162.5745 C.3     1  UNL1        0.0321
     11 O         137.2281  144.5572  162.7118 O.3     1  UNL1       -0.3841
     12 H         136.8970  144.0053  161.9860 H       1  UNL1        0.2103
     13 C         137.9672  142.8232  163.6851 C.3     1  UNL1        0.0595
     14 C         138.5937  139.0254  166.0162 C.ar    1  UNL1        0.2250
     15 C         138.7610  137.7213  165.2943 C.ar    1  UNL1        0.0593
     16 C         138.7196  137.6830  163.7954 C.ar    1  UNL1        0.0254
     17 C         138.5107  138.9490  163.0183 C.ar    1  UNL1        0.0990
     18 N         138.4693  138.9107  161.5194 N.ar    1  UNL1       -0.2400
     19 C         138.2605  140.1767  160.7423 C.ar    1  UNL1        0.1281
     20 C         138.0931  141.4809  161.4642 C.ar    1  UNL1        0.1567
     21 F         137.8843  142.7468  160.6872 F       1  UNL1       -0.2028
     22 C         138.1346  141.5191  162.9632 C.ar    1  UNL1        0.0285
     23 C         138.3434  140.2531  163.7402 C.ar    1  UNL1        0.1002
     24 N         138.3849  140.2913  165.2392 N.ar    1  UNL1       -0.2104
     25 C         139.5140  140.0569  168.2160 C.3     1  UNL1        0.2542
     26 O         138.6351  139.0637  167.5151 O.3     1  UNL1       -0.4561
     27 N         144.0110  142.1335  164.8019 N.3     1  UNL1       -0.2926
     28 H         144.1179  142.3719  165.7879 H       1  UNL1        0.1236
     29 C         144.3631  140.6817  164.6668 C.3     1  UNL1        0.1152
     30 C         143.7740  139.8676  163.5533 C.ar    1  UNL1        0.0765
     31 C         142.7943  138.7741  163.8608 C.ar    1  UNL1        0.0193
     32 C         142.2052  137.9599  162.7471 C.ar    1  UNL1        0.0411
     33 C         142.5958  138.2392  161.3261 C.ar    1  UNL1        0.1708
     34 C         143.5754  139.3327  161.0186 C.ar    1  UNL1        0.1682
     35 N         144.1646  140.1469  162.1322 N.ar    1  UNL1       -0.2304
     36 N         143.9660  139.6121  159.5976 N.am    1  UNL1       -0.2639
     37 C         143.3769  138.7979  158.4839 C.2     1  UNL1        0.2718
     38 O         143.7674  139.0772  157.0629 O.2     1  UNL1       -0.2707
     39 C         142.3972  137.7044  158.7914 C.3     1  UNL1        0.2898
     40 O         142.0067  137.4251  160.2125 O.3     1  UNL1       -0.4628
     41 H         144.6090  140.3298  159.3958 H       1  UNL1        0.1565
@<TRIPOS>BOND
     1    25    26    1
     2    26    14    1
     3    14    15   ar
     4    15    16   ar
     5    16    17   ar
     6    17    18   ar
     7    18    19   ar
     8    19    20   ar
     9    20    21    1
    10    20    22   ar
    11    22    13    1
    12    13     9    1
    13     9    10    1
    14     9    11    1
    15     9     1    1
    16     1     2    1
    17     2     3    1
    18     3     4    1
    19     4    27    1
    20    27    29    1
    21    29    30    1
    22    30    31   ar
    23    31    32   ar
    24    32    33   ar
    25    33    34   ar
    26    34    35   ar
    27    34    36    1
    28    36    37   am
    29    37    38    2
    30    37    39    1
    31    39    40    1
    32     4     5    1
    33     5     6    1
    34     4     7    1
    35     7     8    1
    36    22    23   ar
    37    23    24   ar
    38    24    14   ar
    39    23    17   ar
    40     6     1    1
    41     8     1    1
    42    35    30   ar
    43    40    33    1
    44    11    12    1
    45    27    28    1
    46    36    41    1
@<TRIPOS>MOLECULE
*****
 41 46 0 0 0
SMALL
GASTEIGER

@<TRIPOS>ATOM
      1 C         138.1362  140.2317  162.5274 C.3     1  UNL1        0.1154
      2 C         138.4646  140.9808  161.2700 C.3     1  UNL1        0.0310
      3 C         138.3386  142.4751  161.2326 C.3     1  UNL1        0.0194
      4 C         137.8841  143.2202  162.4526 C.3     1  UNL1        0.0700
      5 C         137.5557  142.4710  163.7099 C.3     1  UNL1        0.0194
      6 C         137.6818  140.9768  163.7474 C.3     1  UNL1        0.0310
      7 C         137.9380  142.4014  162.5212 C.3     1  UNL1        0.1563
      8 O         138.0520  141.0504  162.5549 O.3     1  UNL1       -0.3549
      9 C         138.2622  138.7375  162.5648 C.3     1  UNL1        0.1150
     10 C         137.3601  138.6315  161.3711 C.3     1  UNL1        0.0321
     11 O         138.3882  137.2433  162.6022 O.3     1  UNL1       -0.3841
     12 H         139.2907  136.9886  162.3540 H       1  UNL1        0.2103
     13 C         139.1644  138.8435  163.7585 C.3     1  UNL1        0.0595
     14 C         141.3093  141.2820  166.8735 C.ar    1  UNL1        0.2250
     15 C         142.7579  141.6255  166.6906 C.ar    1  UNL1        0.0593
     16 C         143.4916  141.1562  165.4694 C.ar    1  UNL1        0.0254
     17 C         142.7766  140.3434  164.4310 C.ar    1  UNL1        0.0990
     18 N         143.5103  139.8741  163.2098 N.ar    1  UNL1       -0.2400
     19 C         142.7953  139.0612  162.1714 C.ar    1  UNL1        0.1281
     20 C         141.3467  138.7177  162.3543 C.ar    1  UNL1        0.1567
     21 F         140.6318  137.9049  161.3160 F       1  UNL1       -0.2028
     22 C         140.6130  139.1870  163.5756 C.ar    1  UNL1        0.0285
     23 C         141.3280  139.9998  164.6139 C.ar    1  UNL1        0.1002
     24 N         140.5943  140.4692  165.8352 N.ar    1  UNL1       -0.2104
     25 C         139.8634  140.7615  168.9685 C.3     1  UNL1        0.2542
     26 O         140.5756  141.7512  168.0948 O.3     1  UNL1       -0.4561
     27 N         137.7581  144.7145  162.4152 N.3     1  UNL1       -0.2926
     28 H         137.0923  144.9721  163.1437 H       1  UNL1        0.1236
     29 C         138.9709  145.5746  162.6131 C.3     1  UNL1        0.1152
     30 C         140.3371  144.9554  162.6162 C.ar    1  UNL1        0.0765
     31 C         141.0688  144.7593  163.9108 C.ar    1  UNL1        0.0193
     32 C         142.4350  144.1400  163.9138 C.ar    1  UNL1        0.0411
     33 C         143.0695  143.7169  162.6222 C.ar    1  UNL1        0.1708
     34 C         142.3378  143.9130  161.3275 C.ar    1  UNL1        0.1682
     35 N         140.9717  144.5322  161.3245 N.ar    1  UNL1       -0.2304
     36 N         142.9723  143.4899  160.0359 N.am    1  UNL1       -0.2639
     37 C         144.3386  142.8706  160.0389 C.2     1  UNL1        0.2718
     38 O         144.9731  142.4475  158.7473 O.2     1  UNL1       -0.2707
     39 C         145.0703  142.6745  161.3336 C.3     1  UNL1        0.2898
     40 O         144.4357  143.0977  162.6253 O.3     1  UNL1       -0.4628
     41 H         142.4921  143.6186  159.1862 H       1  UNL1        0.1565
@<TRIPOS>BOND
     1    25    26    1
     2    26    14    1
     3    14    15   ar
     4    15    16   ar
     5    16    17   ar
     6    17    18   ar
     7    18    19   ar
     8    19    20   ar
     9    20    21    1
    10    20    22   ar
    11    22    13    1
    12    13     9    1
    13     9    10    1
    14     9    11    1
    15     9     1    1
    16     1     2    1
    17     2     3    1
    18     3     4    1
    19     4    27    1
    20    27    29    1
    21    29    30    1
    22    30    31   ar
    23    31    32   ar
    24    32    33   ar
    25    33    34   ar
    26    34    35   ar
    27    34    36    1
    28    36    37   am
    29    37    38    2
    30    37    39    1
    31    39    40    1
    32     4     5    1
    33     5     6    1
    34     4     7    1
    35     7     8    1
    36    22    23   ar
    37    23    24   ar
    38    24    14   ar
    39    23    17   ar
    40     6     1    1
    41     8     1    1
    42    35    30   ar
    43    40    33    1
    44    11    12    1
    45    27    28    1
    46    36    41    1
@<TRIPOS>MOLECULE
*****
 41 46 0 0 0
SMALL
GASTEIGER

@<TRIPOS>ATOM
      1 C         141.1977  143.9413  161.5600 C.3     1  UNL1        0.1154
      2 C         142.6428  143.6228  161.3145 C.3     1  UNL1        0.0310
      3 C         143.6424  143.7721  162.4229 C.3     1  UNL1        0.0194
      4 C         143.1970  144.2400  163.7766 C.3     1  UNL1        0.0700
      5 C         141.7519  144.5586  164.0221 C.3     1  UNL1        0.0194
      6 C         140.7523  144.4092  162.9138 C.3     1  UNL1        0.0310
      7 C         142.6126  144.1735  163.2005 C.3     1  UNL1        0.1563
      8 O         141.7087  144.0384  162.1983 O.3     1  UNL1       -0.3549
      9 C         140.1980  143.7920  160.4517 C.3     1  UNL1        0.1150
     10 C         140.0970  145.2845  160.3417 C.3     1  UNL1        0.0321
     11 O         139.1983  143.6427  159.3434 O.3     1  UNL1       -0.3841
     12 H         139.6390  143.2856  158.5565 H       1  UNL1        0.2103
     13 C         140.2991  142.2994  160.5617 C.3     1  UNL1        0.0595
     14 C         142.2169  138.7978  162.6379 C.ar    1  UNL1        0.2250
     15 C         141.4789  138.0742  163.7250 C.ar    1  UNL1        0.0593
     16 C         140.1015  138.5179  164.1200 C.ar    1  UNL1        0.0254
     17 C         139.4622  139.6851  163.4279 C.ar    1  UNL1        0.0990
     18 N         138.0849  140.1287  163.8230 N.ar    1  UNL1       -0.2400
     19 C         137.4455  141.2960  163.1309 C.ar    1  UNL1        0.1281
     20 C         138.1836  142.0195  162.0438 C.ar    1  UNL1        0.1567
     21 F         137.5443  143.1867  161.3518 F       1  UNL1       -0.2028
     22 C         139.5610  141.5758  161.6488 C.ar    1  UNL1        0.0285
     23 C         140.2003  140.4087  162.3409 C.ar    1  UNL1        0.1002
     24 N         141.5777  139.9650  161.9458 N.ar    1  UNL1       -0.2104
     25 C         144.1036  138.6313  160.8594 C.3     1  UNL1        0.2542
     26 O         143.5943  138.3542  162.2429 O.3     1  UNL1       -0.4561
     27 N         144.1967  144.3894  164.8850 N.3     1  UNL1       -0.2926
     28 H         143.7998  145.0509  165.5523 H       1  UNL1        0.1236
     29 C         144.6295  143.1878  165.6716 C.3     1  UNL1        0.1152
     30 C         143.6200  142.3986  166.4515 C.ar    1  UNL1        0.0765
     31 C         142.9612  141.2025  165.8308 C.ar    1  UNL1        0.0193
     32 C         141.9517  140.4132  166.6107 C.ar    1  UNL1        0.0411
     33 C         141.6011  140.8202  168.0112 C.ar    1  UNL1        0.1708
     34 C         142.2600  142.0163  168.6319 C.ar    1  UNL1        0.1682
     35 N         143.2694  142.8055  167.8521 N.ar    1  UNL1       -0.2304
     36 N         141.9094  142.4232  170.0324 N.am    1  UNL1       -0.2639
     37 C         140.8999  141.6340  170.8123 C.2     1  UNL1        0.2718
     38 O         140.5494  142.0409  172.2128 O.2     1  UNL1       -0.2707
     39 C         140.2411  140.4379  170.1916 C.3     1  UNL1        0.2898
     40 O         140.5917  140.0310  168.7910 O.3     1  UNL1       -0.4628
     41 H         142.3418  143.2082  170.4397 H       1  UNL1        0.1565
@<TRIPOS>BOND
     1    25    26    1
     2    26    14    1
     3    14    15   ar
     4    15    16   ar
     5    16    17   ar
     6    17    18   ar
     7    18    19   ar
     8    19    20   ar
     9    20    21    1
    10    20    22   ar
    11    22    13    1
    12    13     9    1
    13     9    10    1
    14     9    11    1
    15     9     1    1
    16     1     2    1
    17     2     3    1
    18     3     4    1
    19     4    27    1
    20    27    29    1
    21    29    30    1
    22    30    31   ar
    23    31    32   ar
    24    32    33   ar
    25    33    34   ar
    26    34    35   ar
    27    34    36    1
    28    36    37   am
    29    37    38    2
    30    37    39    1
    31    39    40    1
    32     4     5    1
    33     5     6    1
    34     4     7    1
    35     7     8    1
    36    22    23   ar
    37    23    24   ar
    38    24    14   ar
    39    23    17   ar
    40     6     1    1
    41     8     1    1
    42    35    30   ar
    43    40    33    1
    44    11    12    1
    45    27    28    1
    46    36    41    1
