@<TRIPOS>MOLECULE
*****
 26 27 0 0 0
SMALL
GASTEIGER

@<TRIPOS>ATOM
      1 C         138.7940  139.3252  165.3197 C.ar    1  UNL1        0.0252
      2 C         138.3259  140.4783  164.4823 C.ar    1  UNL1       -0.0009
      3 C         138.1046  140.2949  163.0102 C.ar    1  UNL1        0.0210
      4 C         138.3515  138.9584  162.3754 C.ar    1  UNL1        0.1397
      5 F         138.1302  138.7750  160.9031 F       1  UNL1       -0.2044
      6 C         138.8196  137.8054  163.2128 C.ar    1  UNL1        0.0587
      7 C         139.0409  137.9888  164.6850 C.ar    1  UNL1        0.1401
      8 F         139.5091  136.8357  165.5225 F       1  UNL1       -0.2044
      9 C         137.7021  138.7840  166.8142 C.3     1  UNL1        0.0291
     10 C         139.0154  139.5086  166.7920 C.3     1  UNL1        0.1080
     11 C         140.2517  140.1695  166.2585 C.3     1  UNL1        0.0388
     12 C         141.2532  140.7621  167.2049 C.3     1  UNL1        0.0671
     13 S         141.0184  140.6938  168.6848 S.3     1  UNL1       -0.0807
     14 C         139.7821  140.0330  169.2184 C.2     1  UNL1        0.1482
     15 N         139.5473  139.9647  170.6983 N.pl3   1  UNL1       -0.3380
     16 N         138.7805  139.4403  168.2720 N.2     1  UNL1       -0.2509
     17 H         140.2047  140.3536  171.3195 H       1  UNL1        0.1442
     18 H         138.7358  139.5309  171.0485 H       1  UNL1        0.1442
     19 C         137.6365  141.4479  162.1727 C.3     1  UNL1        0.0981
     20 N         137.1698  142.7124  162.8311 N.3     1  UNL1       -0.2866
     21 H         136.9526  142.4772  163.7995 H       1  UNL1        0.1238
     22 C         138.0670  143.9139  162.8681 C.3     1  UNL1        0.1734
     23 C         138.4209  144.5455  164.1818 C.3     1  UNL1        0.4118
     24 F         138.7747  145.1771  165.4956 F       1  UNL1       -0.1685
     25 F         139.4303  145.4146  163.4921 F       1  UNL1       -0.1685
     26 F         137.4115  143.6764  164.8716 F       1  UNL1       -0.1685
@<TRIPOS>BOND
     1    10     9    1
     2    10     1    1
     3     1     2   ar
     4     2     3   ar
     5     3    19    1
     6    19    20    1
     7    20    22    1
     8    22    23    1
     9    23    24    1
    10    23    25    1
    11    23    26    1
    12     3     4   ar
    13     4     5    1
    14     4     6   ar
    15     6     7   ar
    16     7     8    1
    17    10    11    1
    18    11    12    1
    19    12    13    1
    20    13    14    1
    21    14    15    1
    22    14    16    2
    23    16    10    1
    24     7     1   ar
    25    20    21    1
    26    15    17    1
    27    15    18    1
@<TRIPOS>MOLECULE
*****
 26 27 0 0 0
SMALL
GASTEIGER

@<TRIPOS>ATOM
      1 C         142.0948  141.8207  166.2616 C.ar    1  UNL1        0.0252
      2 C         142.5327  142.0972  167.6694 C.ar    1  UNL1       -0.0009
      3 C         142.8134  140.9587  168.6047 C.ar    1  UNL1        0.0210
      4 C         142.6562  139.5437  168.1324 C.ar    1  UNL1        0.1397
      5 F         142.9370  138.4052  169.0678 F       1  UNL1       -0.2044
      6 C         142.2183  139.2672  166.7247 C.ar    1  UNL1        0.0587
      7 C         141.9376  140.4057  165.7893 C.ar    1  UNL1        0.1401
      8 F         141.4996  140.1292  164.3815 F       1  UNL1       -0.2044
      9 C         143.2868  142.7909  165.0970 C.3     1  UNL1        0.0291
     10 C         141.8140  142.9592  165.3262 C.3     1  UNL1        0.1080
     11 C         140.4387  142.7321  165.8802 C.3     1  UNL1        0.0388
     12 C         139.2942  143.5851  165.4192 C.3     1  UNL1        0.0671
     13 S         139.5250  144.6651  164.4042 S.3     1  UNL1       -0.0807
     14 C         140.9002  144.8922  163.8502 C.2     1  UNL1        0.1482
     15 N         141.1310  145.9723  162.8351 N.pl3   1  UNL1       -0.3380
     16 N         142.0448  144.0393  164.3111 N.2     1  UNL1       -0.2509
     17 H         140.3798  146.5321  162.5325 H       1  UNL1        0.1442
     18 H         142.0337  146.1213  162.4715 H       1  UNL1        0.1442
     19 C         143.2514  141.2351  170.0125 C.3     1  UNL1        0.0981
     20 N         142.3521  140.8835  171.1604 N.3     1  UNL1       -0.2866
     21 H         142.8213  141.1990  172.0094 H       1  UNL1        0.1238
     22 C         140.9543  141.4250  171.2114 C.3     1  UNL1        0.1734
     23 C         139.8816  140.8137  170.3596 C.3     1  UNL1        0.4118
     24 F         138.8088  140.2023  169.5078 F       1  UNL1       -0.1685
     25 F         140.4461  139.4500  170.6274 F       1  UNL1       -0.1685
     26 F         139.3170  142.1773  170.0918 F       1  UNL1       -0.1685
@<TRIPOS>BOND
     1    10     9    1
     2    10     1    1
     3     1     2   ar
     4     2     3   ar
     5     3    19    1
     6    19    20    1
     7    20    22    1
     8    22    23    1
     9    23    24    1
    10    23    25    1
    11    23    26    1
    12     3     4   ar
    13     4     5    1
    14     4     6   ar
    15     6     7   ar
    16     7     8    1
    17    10    11    1
    18    11    12    1
    19    12    13    1
    20    13    14    1
    21    14    15    1
    22    14    16    2
    23    16    10    1
    24     7     1   ar
    25    20    21    1
    26    15    17    1
    27    15    18    1
@<TRIPOS>MOLECULE
*****
 26 27 0 0 0
SMALL
GASTEIGER

@<TRIPOS>ATOM
      1 C         140.7129  142.2652  166.6198 C.ar    1  UNL1        0.0252
      2 C         140.6561  142.8593  167.9959 C.ar    1  UNL1       -0.0009
      3 C         140.0650  142.0732  169.1284 C.ar    1  UNL1        0.0210
      4 C         139.5307  140.6929  168.8848 C.ar    1  UNL1        0.1397
      5 F         138.9396  139.9068  170.0174 F       1  UNL1       -0.2044
      6 C         139.5875  140.0988  167.5088 C.ar    1  UNL1        0.0587
      7 C         140.1786  140.8849  166.3763 C.ar    1  UNL1        0.1401
      8 F         140.2354  140.2907  165.0001 F       1  UNL1       -0.2044
      9 C         142.5296  142.3385  165.9772 C.3     1  UNL1        0.0291
     10 C         141.3040  143.0513  165.4872 C.3     1  UNL1        0.1080
     11 C         139.8732  143.4910  165.3906 C.3     1  UNL1        0.0388
     12 C         139.4590  144.4692  164.3316 C.3     1  UNL1        0.0671
     13 S         140.4758  145.0078  163.3692 S.3     1  UNL1       -0.0807
     14 C         141.9066  144.5681  163.4658 C.2     1  UNL1        0.1482
     15 N         142.9234  145.1067  162.5034 N.pl3   1  UNL1       -0.3380
     16 N         142.3207  143.5898  164.5248 N.2     1  UNL1       -0.2509
     17 H         142.6516  145.7487  161.8083 H       1  UNL1        0.1442
     18 H         143.8625  144.8181  162.5668 H       1  UNL1        0.1442
     19 C         140.0082  142.6674  170.5046 C.3     1  UNL1        0.0981
     20 N         141.0602  142.3196  171.5157 N.3     1  UNL1       -0.2866
     21 H         140.5925  141.8060  172.2626 H       1  UNL1        0.1238
     22 C         142.2509  141.5032  171.1086 C.3     1  UNL1        0.1734
     23 C         143.2281  142.0484  170.1098 C.3     1  UNL1        0.4118
     24 F         144.2054  142.5936  169.1109 F       1  UNL1       -0.1685
     25 F         143.2885  143.3384  170.8729 F       1  UNL1       -0.1685
     26 F         143.1678  140.7584  169.3466 F       1  UNL1       -0.1685
@<TRIPOS>BOND
     1    10     9    1
     2    10     1    1
     3     1     2   ar
     4     2     3   ar
     5     3    19    1
     6    19    20    1
     7    20    22    1
     8    22    23    1
     9    23    24    1
    10    23    25    1
    11    23    26    1
    12     3     4   ar
    13     4     5    1
    14     4     6   ar
    15     6     7   ar
    16     7     8    1
    17    10    11    1
    18    11    12    1
    19    12    13    1
    20    13    14    1
    21    14    15    1
    22    14    16    2
    23    16    10    1
    24     7     1   ar
    25    20    21    1
    26    15    17    1
    27    15    18    1
@<TRIPOS>MOLECULE
*****
 26 27 0 0 0
SMALL
GASTEIGER

@<TRIPOS>ATOM
      1 C         140.3299  142.1416  166.4589 C.ar    1  UNL1        0.0252
      2 C         139.8319  143.3468  165.7177 C.ar    1  UNL1       -0.0009
      3 C         138.7074  143.2107  164.7344 C.ar    1  UNL1        0.0210
      4 C         138.0810  141.8694  164.4922 C.ar    1  UNL1        0.1397
      5 F         136.9564  141.7334  163.5088 F       1  UNL1       -0.2044
      6 C         138.5790  140.6642  165.2334 C.ar    1  UNL1        0.0587
      7 C         139.7035  140.8003  166.2168 C.ar    1  UNL1        0.1401
      8 F         140.2016  139.5951  166.9581 F       1  UNL1       -0.2044
      9 C         142.2336  141.9842  166.1946 C.3     1  UNL1        0.0291
     10 C         141.4544  142.2776  167.4423 C.3     1  UNL1        0.1080
     11 C         140.2848  142.5238  168.3485 C.3     1  UNL1        0.0388
     12 C         140.5102  142.8041  169.8047 C.3     1  UNL1        0.0671
     13 S         141.9053  142.8382  170.3547 S.3     1  UNL1       -0.0807
     14 C         143.0750  142.5921  169.4486 C.2     1  UNL1        0.1482
     15 N         144.4701  142.6262  169.9986 N.pl3   1  UNL1       -0.3380
     16 N         142.8496  142.3117  167.9923 N.2     1  UNL1       -0.2509
     17 H         144.6181  142.8102  170.9544 H       1  UNL1        0.1442
     18 H         145.2378  142.4646  169.4038 H       1  UNL1        0.1442
     19 C         138.2093  144.4159  163.9931 C.3     1  UNL1        0.0981
     20 N         138.3217  144.4766  162.4985 N.3     1  UNL1       -0.2866
     21 H         137.7957  145.2967  162.1968 H       1  UNL1        0.1238
     22 C         139.6718  144.5656  161.8510 C.3     1  UNL1        0.1734
     23 C         140.8178  145.1917  162.5891 C.3     1  UNL1        0.4118
     24 F         141.9638  145.8177  163.3271 F       1  UNL1       -0.1685
     25 F         140.2476  146.5527  162.3200 F       1  UNL1       -0.1685
     26 F         141.3880  143.8306  162.8581 F       1  UNL1       -0.1685
@<TRIPOS>BOND
     1    10     9    1
     2    10     1    1
     3     1     2   ar
     4     2     3   ar
     5     3    19    1
     6    19    20    1
     7    20    22    1
     8    22    23    1
     9    23    24    1
    10    23    25    1
    11    23    26    1
    12     3     4   ar
    13     4     5    1
    14     4     6   ar
    15     6     7   ar
    16     7     8    1
    17    10    11    1
    18    11    12    1
    19    12    13    1
    20    13    14    1
    21    14    15    1
    22    14    16    2
    23    16    10    1
    24     7     1   ar
    25    20    21    1
    26    15    17    1
    27    15    18    1
@<TRIPOS>MOLECULE
*****
 26 27 0 0 0
SMALL
GASTEIGER

@<TRIPOS>ATOM
      1 C         141.3331  140.4341  166.8780 C.ar    1  UNL1        0.0252
      2 C         140.0488  140.7974  166.1936 C.ar    1  UNL1       -0.0009
      3 C         139.5333  139.9507  165.0679 C.ar    1  UNL1        0.0210
      4 C         140.3021  138.7406  164.6266 C.ar    1  UNL1        0.1397
      5 F         139.7866  137.8939  163.5008 F       1  UNL1       -0.2044
      6 C         141.5865  138.3773  165.3110 C.ar    1  UNL1        0.0587
      7 C         142.1019  139.2241  166.4367 C.ar    1  UNL1        0.1401
      8 F         143.3863  138.8608  167.1212 F       1  UNL1       -0.2044
      9 C         142.4958  141.9721  166.8404 C.3     1  UNL1        0.0291
     10 C         141.8487  141.2808  168.0038 C.3     1  UNL1        0.1080
     11 C         141.0225  140.2956  168.7762 C.3     1  UNL1        0.0388
     12 C         140.9366  140.3970  170.2703 C.3     1  UNL1        0.0671
     13 S         141.6770  141.4839  170.9920 S.3     1  UNL1       -0.0807
     14 C         142.5031  142.4691  170.2196 C.2     1  UNL1        0.1482
     15 N         143.2434  143.5560  170.9413 N.pl3   1  UNL1       -0.3380
     16 N         142.5890  142.3677  168.7255 N.2     1  UNL1       -0.2509
     17 H         143.1871  143.6226  171.9219 H       1  UNL1        0.1442
     18 H         143.7857  144.2026  170.4343 H       1  UNL1        0.1442
     19 C         138.2489  140.3140  164.3834 C.3     1  UNL1        0.0981
     20 N         137.5765  141.6184  164.6938 N.3     1  UNL1       -0.2866
     21 H         137.7030  141.7846  165.6922 H       1  UNL1        0.1238
     22 C         138.0067  142.8704  163.9886 C.3     1  UNL1        0.1734
     23 C         138.5010  144.0449  164.7800 C.3     1  UNL1        0.4118
     24 F         138.9952  145.2194  165.5714 F       1  UNL1       -0.1685
     25 F         137.0855  144.4263  165.0979 F       1  UNL1       -0.1685
     26 F         139.9164  143.6635  164.4621 F       1  UNL1       -0.1685
@<TRIPOS>BOND
     1    10     9    1
     2    10     1    1
     3     1     2   ar
     4     2     3   ar
     5     3    19    1
     6    19    20    1
     7    20    22    1
     8    22    23    1
     9    23    24    1
    10    23    25    1
    11    23    26    1
    12     3     4   ar
    13     4     5    1
    14     4     6   ar
    15     6     7   ar
    16     7     8    1
    17    10    11    1
    18    11    12    1
    19    12    13    1
    20    13    14    1
    21    14    15    1
    22    14    16    2
    23    16    10    1
    24     7     1   ar
    25    20    21    1
    26    15    17    1
    27    15    18    1
@<TRIPOS>MOLECULE
*****
 26 27 0 0 0
SMALL
GASTEIGER

@<TRIPOS>ATOM
      1 C         139.6785  140.5455  166.0774 C.ar    1  UNL1        0.0252
      2 C         139.4761  139.9947  167.4579 C.ar    1  UNL1       -0.0009
      3 C         139.8115  140.8324  168.6561 C.ar    1  UNL1        0.0210
      4 C         140.3494  142.2207  168.4739 C.ar    1  UNL1        0.1397
      5 F         140.6848  143.0584  169.6722 F       1  UNL1       -0.2044
      6 C         140.5518  142.7715  167.0934 C.ar    1  UNL1        0.0587
      7 C         140.2164  141.9338  165.8952 C.ar    1  UNL1        0.1401
      8 F         140.4188  142.4845  164.5147 F       1  UNL1       -0.2044
      9 C         138.0885  140.5230  164.9866 C.3     1  UNL1        0.0291
     10 C         139.3431  139.7078  164.8791 C.3     1  UNL1        0.1080
     11 C         140.7141  139.1836  165.1878 C.3     1  UNL1        0.0388
     12 C         141.3141  138.1048  164.3355 C.3     1  UNL1        0.0671
     13 S         140.5429  137.5503  163.1745 S.3     1  UNL1       -0.0807
     14 C         139.1718  138.0746  162.8658 C.2     1  UNL1        0.1482
     15 N         138.4006  137.5200  161.7049 N.pl3   1  UNL1       -0.3380
     16 N         138.5719  139.1533  163.7181 N.2     1  UNL1       -0.2509
     17 H         138.7944  136.8120  161.1455 H       1  UNL1        0.1442
     18 H         137.5008  137.8641  161.5023 H       1  UNL1        0.1442
     19 C         139.6091  140.2817  170.0366 C.3     1  UNL1        0.0981
     20 N         140.7237  139.5487  170.7226 N.3     1  UNL1       -0.2866
     21 H         140.5504  138.5531  170.5841 H       1  UNL1        0.1238
     22 C         142.1465  139.8006  170.3200 C.3     1  UNL1        0.1734
     23 C         142.7895  138.9495  169.2654 C.3     1  UNL1        0.4118
     24 F         143.4325  138.0984  168.2108 F       1  UNL1       -0.1685
     25 F         142.7105  137.7607  170.1767 F       1  UNL1       -0.1685
     26 F         142.8685  140.1384  168.3541 F       1  UNL1       -0.1685
@<TRIPOS>BOND
     1    10     9    1
     2    10     1    1
     3     1     2   ar
     4     2     3   ar
     5     3    19    1
     6    19    20    1
     7    20    22    1
     8    22    23    1
     9    23    24    1
    10    23    25    1
    11    23    26    1
    12     3     4   ar
    13     4     5    1
    14     4     6   ar
    15     6     7   ar
    16     7     8    1
    17    10    11    1
    18    11    12    1
    19    12    13    1
    20    13    14    1
    21    14    15    1
    22    14    16    2
    23    16    10    1
    24     7     1   ar
    25    20    21    1
    26    15    17    1
    27    15    18    1
@<TRIPOS>MOLECULE
*****
 26 27 0 0 0
SMALL
GASTEIGER

@<TRIPOS>ATOM
      1 C         140.4719  140.5981  166.7036 C.ar    1  UNL1        0.0252
      2 C         140.9788  141.5008  165.6183 C.ar    1  UNL1       -0.0009
      3 C         140.1501  141.7358  164.3903 C.ar    1  UNL1        0.0210
      4 C         138.8145  141.0680  164.2476 C.ar    1  UNL1        0.1397
      5 F         137.9858  141.3031  163.0195 F       1  UNL1       -0.2044
      6 C         138.3076  140.1653  165.3330 C.ar    1  UNL1        0.0587
      7 C         139.1363  139.9303  166.5610 C.ar    1  UNL1        0.1401
      8 F         138.6294  139.0275  167.6464 F       1  UNL1       -0.2044
      9 C         141.9589  139.4030  166.9856 C.3     1  UNL1        0.0291
     10 C         141.3006  140.3630  167.9317 C.3     1  UNL1        0.1080
     11 C         140.3545  141.4046  168.4513 C.3     1  UNL1        0.0388
     12 C         140.4657  141.8778  169.8704 C.3     1  UNL1        0.0671
     13 S         141.5230  141.3093  170.7698 S.3     1  UNL1       -0.0807
     14 C         142.4691  140.2678  170.2502 C.2     1  UNL1        0.1482
     15 N         143.5264  139.6993  171.1497 N.pl3   1  UNL1       -0.3380
     16 N         142.3579  139.7946  168.8312 N.2     1  UNL1       -0.2509
     17 H         143.5994  140.0099  172.0811 H       1  UNL1        0.1442
     18 H         144.1473  139.0157  170.8087 H       1  UNL1        0.1442
     19 C         140.6570  142.6386  163.3048 C.3     1  UNL1        0.0981
     20 N         140.7189  144.1204  163.5297 N.3     1  UNL1       -0.2866
     21 H         141.3747  144.4951  162.8442 H       1  UNL1        0.1238
     22 C         139.4709  144.9466  163.4318 C.3     1  UNL1        0.1734
     23 C         138.2975  144.6405  164.3145 C.3     1  UNL1        0.4118
     24 F         137.1240  144.3343  165.1973 F       1  UNL1       -0.1685
     25 F         137.4750  144.3065  163.1054 F       1  UNL1       -0.1685
     26 F         139.1199  144.9745  165.5237 F       1  UNL1       -0.1685
@<TRIPOS>BOND
     1    10     9    1
     2    10     1    1
     3     1     2   ar
     4     2     3   ar
     5     3    19    1
     6    19    20    1
     7    20    22    1
     8    22    23    1
     9    23    24    1
    10    23    25    1
    11    23    26    1
    12     3     4   ar
    13     4     5    1
    14     4     6   ar
    15     6     7   ar
    16     7     8    1
    17    10    11    1
    18    11    12    1
    19    12    13    1
    20    13    14    1
    21    14    15    1
    22    14    16    2
    23    16    10    1
    24     7     1   ar
    25    20    21    1
    26    15    17    1
    27    15    18    1
@<TRIPOS>MOLECULE
*****
 26 27 0 0 0
SMALL
GASTEIGER

@<TRIPOS>ATOM
      1 C         141.4670  141.7091  166.5052 C.ar    1  UNL1        0.0252
      2 C         140.5288  141.6334  165.3373 C.ar    1  UNL1       -0.0009
      3 C         140.9378  142.1977  164.0090 C.ar    1  UNL1        0.0210
      4 C         142.2848  142.8378  163.8487 C.ar    1  UNL1        0.1397
      5 F         142.6937  143.4021  162.5203 F       1  UNL1       -0.2044
      6 C         143.2230  142.9135  165.0166 C.ar    1  UNL1        0.0587
      7 C         142.8141  142.3491  166.3448 C.ar    1  UNL1        0.1401
      8 F         143.7523  142.4248  167.5128 F       1  UNL1       -0.2044
      9 C         141.4645  139.8844  167.1290 C.3     1  UNL1        0.0291
     10 C         141.0581  141.1448  167.8335 C.3     1  UNL1        0.1080
     11 C         140.7937  142.6011  168.0767 C.3     1  UNL1        0.0388
     12 C         140.2616  143.0554  169.4035 C.3     1  UNL1        0.0671
     13 S         139.9939  142.0533  170.4871 S.3     1  UNL1       -0.0807
     14 C         140.2583  140.5970  170.2439 C.2     1  UNL1        0.1482
     15 N         139.9906  139.5949  171.3276 N.pl3   1  UNL1       -0.3380
     16 N         140.7904  140.1427  168.9171 N.2     1  UNL1       -0.2509
     17 H         139.6413  139.8931  172.1984 H       1  UNL1        0.1442
     18 H         140.1641  138.6391  171.1679 H       1  UNL1        0.1442
     19 C         139.9996  142.1220  162.8410 C.3     1  UNL1        0.0981
     20 N         138.7224  142.9087  162.8527 N.3     1  UNL1       -0.2866
     21 H         138.0919  142.4369  163.5010 H       1  UNL1        0.1238
     22 C         138.7375  144.3576  163.2405 C.3     1  UNL1        0.1734
     23 C         138.6787  144.7473  164.6878 C.3     1  UNL1        0.4118
     24 F         138.6199  145.1369  166.1351 F       1  UNL1       -0.1685
     25 F         140.0835  145.2665  164.6051 F       1  UNL1       -0.1685
     26 F         137.2739  144.2280  164.7706 F       1  UNL1       -0.1685
@<TRIPOS>BOND
     1    10     9    1
     2    10     1    1
     3     1     2   ar
     4     2     3   ar
     5     3    19    1
     6    19    20    1
     7    20    22    1
     8    22    23    1
     9    23    24    1
    10    23    25    1
    11    23    26    1
    12     3     4   ar
    13     4     5    1
    14     4     6   ar
    15     6     7   ar
    16     7     8    1
    17    10    11    1
    18    11    12    1
    19    12    13    1
    20    13    14    1
    21    14    15    1
    22    14    16    2
    23    16    10    1
    24     7     1   ar
    25    20    21    1
    26    15    17    1
    27    15    18    1
@<TRIPOS>MOLECULE
*****
 26 27 0 0 0
SMALL
GASTEIGER

@<TRIPOS>ATOM
      1 C         140.8642  141.4544  166.9356 C.ar    1  UNL1        0.0252
      2 C         141.3339  142.6566  166.1715 C.ar    1  UNL1       -0.0009
      3 C         140.5557  143.1419  164.9845 C.ar    1  UNL1        0.0210
      4 C         139.3079  142.4249  164.5617 C.ar    1  UNL1        0.1397
      5 F         138.5297  142.9102  163.3747 F       1  UNL1       -0.2044
      6 C         138.8382  141.2226  165.3258 C.ar    1  UNL1        0.0587
      7 C         139.6163  140.7374  166.5128 C.ar    1  UNL1        0.1401
      8 F         139.1466  139.5351  167.2770 F       1  UNL1       -0.2044
      9 C         142.3384  140.2148  167.0288 C.3     1  UNL1        0.0291
     10 C         141.6423  140.9691  168.1227 C.3     1  UNL1        0.1080
     11 C         140.6760  141.8919  168.8043 C.3     1  UNL1        0.0388
     12 C         140.7296  142.0674  170.2930 C.3     1  UNL1        0.0671
     13 S         141.7495  141.3201  171.1001 S.3     1  UNL1       -0.0807
     14 C         142.7158  140.3973  170.4185 C.2     1  UNL1        0.1482
     15 N         143.7357  139.6500  171.2256 N.pl3   1  UNL1       -0.3380
     16 N         142.6622  140.2218  168.9298 N.2     1  UNL1       -0.2509
     17 H         143.7709  139.7652  172.2027 H       1  UNL1        0.1442
     18 H         144.3700  139.0443  170.7782 H       1  UNL1        0.1442
     19 C         141.0254  144.3442  164.2203 C.3     1  UNL1        0.0981
     20 N         141.9424  144.1749  163.0455 N.3     1  UNL1       -0.2866
     21 H         141.5740  144.7623  162.2973 H       1  UNL1        0.1238
     22 C         143.3996  144.5052  163.1777 C.3     1  UNL1        0.1734
     23 C         144.1050  144.2771  164.4816 C.3     1  UNL1        0.4118
     24 F         144.8105  144.0489  165.7855 F       1  UNL1       -0.1685
     25 F         144.1197  142.8010  164.2154 F       1  UNL1       -0.1685
     26 F         144.0904  145.7532  164.7478 F       1  UNL1       -0.1685
@<TRIPOS>BOND
     1    10     9    1
     2    10     1    1
     3     1     2   ar
     4     2     3   ar
     5     3    19    1
     6    19    20    1
     7    20    22    1
     8    22    23    1
     9    23    24    1
    10    23    25    1
    11    23    26    1
    12     3     4   ar
    13     4     5    1
    14     4     6   ar
    15     6     7   ar
    16     7     8    1
    17    10    11    1
    18    11    12    1
    19    12    13    1
    20    13    14    1
    21    14    15    1
    22    14    16    2
    23    16    10    1
    24     7     1   ar
    25    20    21    1
    26    15    17    1
    27    15    18    1
