@<TRIPOS>MOLECULE
*****
 31 34 0 0 0
SMALL
GASTEIGER

@<TRIPOS>ATOM
      1 C         142.8912  143.7792  161.5906 C.ar    1  UNL1        0.2168
      2 N         144.3036  143.9752  162.0562 N.ar    1  UNL1       -0.1210
      3 N         144.4398  143.3353  163.4060 N.ar    1  UNL1       -0.1393
      4 C         143.1116  142.7438  163.7747 C.ar    1  UNL1        0.1351
      5 S         142.1545  143.0181  162.6528 S.2     1  UNL1       -0.0262
      6 C         140.2311  145.6367  161.2401 C.3     1  UNL1        0.0520
      7 C         141.0937  145.1136  160.1301 C.ar    1  UNL1        0.0615
      8 C         140.8850  145.3526  158.6640 C.ar    1  UNL1        0.0228
      9 C         141.9787  144.6464  157.9190 C.ar    1  UNL1        0.0789
     10 N         142.8634  143.9711  158.9247 N.ar    1  UNL1       -0.1683
     11 N         142.3164  144.2598  160.2912 N.ar    1  UNL1       -0.2100
     12 C         142.0279  144.7095  156.4212 C.3     1  UNL1        0.0647
     13 C         140.9832  145.4789  155.6683 C.3     1  UNL1        0.0788
     14 N         139.8895  146.1850  156.4133 N.3     1  UNL1       -0.2682
     15 C         139.8403  146.1219  157.9112 C.3     1  UNL1        0.1016
     16 C         138.8448  146.9544  155.6604 C.3     1  UNL1        0.0783
     17 C         139.1271  148.3559  155.2066 C.3     1  UNL1        0.0590
     18 C         138.7074  149.5184  156.0566 C.2     1  UNL1        0.0517
     19 O         138.2811  149.2936  157.4771 O.co2   1  UNL1       -0.5491
     20 O         138.7141  150.9057  155.4862 O.co2   1  UNL1       -0.5491
     21 C         142.7959  142.0072  165.0427 C.ar    1  UNL1        0.0267
     22 C         142.0282  140.7196  164.9909 C.ar    1  UNL1        0.0052
     23 C         141.7126  139.9831  166.2588 C.ar    1  UNL1        0.0378
     24 C         142.1645  140.5342  167.5787 C.ar    1  UNL1        0.1488
     25 C         142.9321  141.8218  167.6305 C.ar    1  UNL1        0.0916
     26 CL        143.3841  142.3730  168.9504 Cl      1  UNL1       -0.0791
     27 C         143.2478  142.5584  166.3625 C.ar    1  UNL1        0.0165
     28 O         141.8488  139.7977  168.8468 O.3     1  UNL1       -0.4783
     29 C         140.6888  140.2278  169.6950 C.3     1  UNL1        0.1662
     30 C         139.2977  140.1968  169.1346 C.3     1  UNL1        0.0472
     31 C         140.9198  140.6889  171.1035 C.3     1  UNL1        0.0472
@<TRIPOS>UNITY_ATOM_ATTR
19 1
charge -1
@<TRIPOS>BOND
     1     6     7    1
     2     7     8   ar
     3     8     9   ar
     4     9    10   ar
     5    10    11   ar
     6    11     1    1
     7     1     2   ar
     8     2     3   ar
     9     3     4   ar
    10     4    21    1
    11    21    22   ar
    12    22    23   ar
    13    23    24   ar
    14    24    28    1
    15    28    29    1
    16    29    30    1
    17    29    31    1
    18    24    25   ar
    19    25    26    1
    20    25    27   ar
    21     4     5   ar
    22     9    12    1
    23    12    13    1
    24    13    14    1
    25    14    16    1
    26    16    17    1
    27    17    18    1
    28    18    19   ar
    29    18    20   ar
    30    14    15    1
    31    11     7   ar
    32     5     1   ar
    33    15     8    1
    34    27    21   ar
@<TRIPOS>MOLECULE
*****
 31 34 0 0 0
SMALL
GASTEIGER

@<TRIPOS>ATOM
      1 C         140.4704  144.7171  162.2720 C.ar    1  UNL1        0.2168
      2 N         139.5291  145.8771  162.1367 N.ar    1  UNL1       -0.1210
      3 N         139.5397  146.3179  160.7029 N.ar    1  UNL1       -0.1393
      4 C         140.4875  145.4303  159.9521 C.ar    1  UNL1        0.1351
      5 S         141.0627  144.4409  160.9218 S.2     1  UNL1       -0.0262
      6 C         138.2640  143.4011  164.2844 C.3     1  UNL1        0.0520
      7 C         139.7531  143.3604  164.4606 C.ar    1  UNL1        0.0615
      8 C         140.4894  142.7076  165.5927 C.ar    1  UNL1        0.0228
      9 C         141.9587  142.9090  165.3673 C.ar    1  UNL1        0.0789
     10 N         142.1303  143.6863  164.0960 N.ar    1  UNL1       -0.1683
     11 N         140.7672  143.9653  163.5355 N.ar    1  UNL1       -0.2100
     12 C         142.9504  142.3586  166.3489 C.3     1  UNL1        0.0647
     13 C         142.4728  141.6068  167.5559 C.3     1  UNL1        0.0788
     14 N         141.0036  141.4054  167.7812 N.3     1  UNL1       -0.2682
     15 C         140.0119  141.9558  166.7996 C.3     1  UNL1        0.1016
     16 C         140.5260  140.6535  168.9882 C.3     1  UNL1        0.0783
     17 C         139.5910  141.3107  169.9597 C.3     1  UNL1        0.0590
     18 C         140.0713  142.4496  170.8096 C.2     1  UNL1        0.0517
     19 O         139.9799  143.8570  170.2989 O.co2   1  UNL1       -0.5491
     20 O         140.6429  142.1811  172.1701 O.co2   1  UNL1       -0.5491
     21 C         140.8044  145.5167  158.4885 C.ar    1  UNL1        0.0267
     22 C         142.0314  144.8458  157.9459 C.ar    1  UNL1        0.0052
     23 C         142.3483  144.9323  156.4824 C.ar    1  UNL1        0.0378
     24 C         141.4383  145.6898  155.5614 C.ar    1  UNL1        0.1488
     25 C         140.2114  146.3607  156.1040 C.ar    1  UNL1        0.0916
     26 CL        139.3013  147.1182  155.1830 Cl      1  UNL1       -0.0791
     27 C         139.8944  146.2742  157.5676 C.ar    1  UNL1        0.0165
     28 O         141.7552  145.7763  154.0978 O.3     1  UNL1       -0.4783
     29 C         142.6341  144.7425  153.4583 C.3     1  UNL1        0.1662
     30 C         144.0920  145.0246  153.2467 C.3     1  UNL1        0.0472
     31 C         142.0550  143.4266  153.0306 C.3     1  UNL1        0.0472
@<TRIPOS>UNITY_ATOM_ATTR
19 1
charge -1
@<TRIPOS>BOND
     1     6     7    1
     2     7     8   ar
     3     8     9   ar
     4     9    10   ar
     5    10    11   ar
     6    11     1    1
     7     1     2   ar
     8     2     3   ar
     9     3     4   ar
    10     4    21    1
    11    21    22   ar
    12    22    23   ar
    13    23    24   ar
    14    24    28    1
    15    28    29    1
    16    29    30    1
    17    29    31    1
    18    24    25   ar
    19    25    26    1
    20    25    27   ar
    21     4     5   ar
    22     9    12    1
    23    12    13    1
    24    13    14    1
    25    14    16    1
    26    16    17    1
    27    17    18    1
    28    18    19   ar
    29    18    20   ar
    30    14    15    1
    31    11     7   ar
    32     5     1   ar
    33    15     8    1
    34    27    21   ar
@<TRIPOS>MOLECULE
*****
 31 34 0 0 0
SMALL
GASTEIGER

@<TRIPOS>ATOM
      1 C         142.6886  143.9419  161.8410 C.ar    1  UNL1        0.2168
      2 N         143.9132  144.4380  162.5510 N.ar    1  UNL1       -0.1210
      3 N         143.9293  143.8347  163.9242 N.ar    1  UNL1       -0.1393
      4 C         142.7146  142.9656  164.0629 C.ar    1  UNL1        0.1351
      5 S         141.9478  143.0319  162.7754 S.2     1  UNL1       -0.0262
      6 C         140.1671  145.8364  161.0027 C.3     1  UNL1        0.0520
      7 C         141.1180  145.1647  160.0568 C.ar    1  UNL1        0.0615
      8 C         141.0768  145.2459  158.5596 C.ar    1  UNL1        0.0228
      9 C         142.2104  144.4253  158.0195 C.ar    1  UNL1        0.0789
     10 N         142.9521  143.8370  159.1830 N.ar    1  UNL1       -0.1683
     11 N         142.2770  144.2939  160.4422 N.ar    1  UNL1       -0.2100
     12 C         142.4207  144.3199  156.5381 C.3     1  UNL1        0.0647
     13 C         141.4975  145.0351  155.5968 C.3     1  UNL1        0.0788
     14 N         140.3639  145.8557  156.1369 N.3     1  UNL1       -0.2682
     15 C         140.1536  145.9611  157.6183 C.3     1  UNL1        0.1016
     16 C         139.4407  146.5709  155.1954 C.3     1  UNL1        0.0783
     17 C         138.0258  146.1008  155.0308 C.3     1  UNL1        0.0590
     18 C         137.7366  144.6392  154.8565 C.2     1  UNL1        0.0517
     19 O         138.5708  143.8160  153.9203 O.co2   1  UNL1       -0.5491
     20 O         136.6131  144.0010  155.6183 O.co2   1  UNL1       -0.5491
     21 C         142.3336  142.1700  165.2761 C.ar    1  UNL1        0.0267
     22 C         141.3063  142.7030  166.2303 C.ar    1  UNL1        0.0052
     23 C         140.9253  141.9073  167.4434 C.ar    1  UNL1        0.0378
     24 C         141.5716  140.5787  167.7023 C.ar    1  UNL1        0.1488
     25 C         142.5988  140.0457  166.7481 C.ar    1  UNL1        0.0916
     26 CL        143.2452  138.7170  167.0070 Cl      1  UNL1       -0.0791
     27 C         142.9799  140.8413  165.5350 C.ar    1  UNL1        0.0165
     28 O         141.1906  139.7830  168.9155 O.3     1  UNL1       -0.4783
     29 C         140.3678  140.4149  169.9989 C.3     1  UNL1        0.1662
     30 C         141.0423  141.1157  171.1408 C.3     1  UNL1        0.0472
     31 C         138.8706  140.3461  169.9404 C.3     1  UNL1        0.0472
@<TRIPOS>UNITY_ATOM_ATTR
19 1
charge -1
@<TRIPOS>BOND
     1     6     7    1
     2     7     8   ar
     3     8     9   ar
     4     9    10   ar
     5    10    11   ar
     6    11     1    1
     7     1     2   ar
     8     2     3   ar
     9     3     4   ar
    10     4    21    1
    11    21    22   ar
    12    22    23   ar
    13    23    24   ar
    14    24    28    1
    15    28    29    1
    16    29    30    1
    17    29    31    1
    18    24    25   ar
    19    25    26    1
    20    25    27   ar
    21     4     5   ar
    22     9    12    1
    23    12    13    1
    24    13    14    1
    25    14    16    1
    26    16    17    1
    27    17    18    1
    28    18    19   ar
    29    18    20   ar
    30    14    15    1
    31    11     7   ar
    32     5     1   ar
    33    15     8    1
    34    27    21   ar
@<TRIPOS>MOLECULE
*****
 31 34 0 0 0
SMALL
GASTEIGER

@<TRIPOS>ATOM
      1 C         140.6939  139.7407  161.3259 C.ar    1  UNL1        0.2168
      2 N         141.0102  140.9463  160.4914 N.ar    1  UNL1       -0.1210
      3 N         141.2627  140.4845  159.0867 N.ar    1  UNL1       -0.1393
      4 C         141.1025  138.9935  159.0532 C.ar    1  UNL1        0.1351
      5 S         140.7510  138.5338  160.4371 S.2     1  UNL1       -0.0262
      6 C         142.6615  140.7776  163.7141 C.3     1  UNL1        0.0520
      7 C         141.2807  140.2185  163.8896 C.ar    1  UNL1        0.0615
      8 C         140.5619  140.0378  165.1938 C.ar    1  UNL1        0.0228
      9 C         139.2133  139.4495  164.9021 C.ar    1  UNL1        0.0789
     10 N         139.0986  139.2666  163.4177 N.ar    1  UNL1       -0.1683
     11 N         140.3763  139.7419  162.7919 N.ar    1  UNL1       -0.2100
     12 C         138.2640  139.1563  166.0258 C.3     1  UNL1        0.0647
     13 C         138.6633  139.4514  167.4412 C.3     1  UNL1        0.0788
     14 N         140.0119  140.0397  167.7329 N.3     1  UNL1       -0.2682
     15 C         140.9612  140.3329  166.6092 C.3     1  UNL1        0.1016
     16 C         140.4112  140.3348  169.1484 C.3     1  UNL1        0.0783
     17 C         139.5601  141.2334  169.9959 C.3     1  UNL1        0.0590
     18 C         140.1865  142.3720  170.7451 C.2     1  UNL1        0.0517
     19 O         141.0758  142.0968  171.9213 O.co2   1  UNL1       -0.5491
     20 O         139.9236  143.7857  170.3182 O.co2   1  UNL1       -0.5491
     21 C         141.2653  138.1161  157.8475 C.ar    1  UNL1        0.0267
     22 C         140.0602  137.6869  157.0641 C.ar    1  UNL1        0.0052
     23 C         140.2231  136.8096  155.8584 C.ar    1  UNL1        0.0378
     24 C         141.5908  136.3615  155.4361 C.ar    1  UNL1        0.1488
     25 C         142.7958  136.7907  156.2194 C.ar    1  UNL1        0.0916
     26 CL        144.1637  136.3426  155.7971 Cl      1  UNL1       -0.0791
     27 C         142.6330  137.6680  157.4252 C.ar    1  UNL1        0.0165
     28 O         141.7536  135.4841  154.2303 O.3     1  UNL1       -0.4783
     29 C         141.6048  133.9970  154.3593 C.3     1  UNL1        0.1662
     30 C         141.2501  133.1718  153.1579 C.3     1  UNL1        0.0472
     31 C         141.8108  133.3352  155.6895 C.3     1  UNL1        0.0472
@<TRIPOS>UNITY_ATOM_ATTR
19 1
charge -1
@<TRIPOS>BOND
     1     6     7    1
     2     7     8   ar
     3     8     9   ar
     4     9    10   ar
     5    10    11   ar
     6    11     1    1
     7     1     2   ar
     8     2     3   ar
     9     3     4   ar
    10     4    21    1
    11    21    22   ar
    12    22    23   ar
    13    23    24   ar
    14    24    28    1
    15    28    29    1
    16    29    30    1
    17    29    31    1
    18    24    25   ar
    19    25    26    1
    20    25    27   ar
    21     4     5   ar
    22     9    12    1
    23    12    13    1
    24    13    14    1
    25    14    16    1
    26    16    17    1
    27    17    18    1
    28    18    19   ar
    29    18    20   ar
    30    14    15    1
    31    11     7   ar
    32     5     1   ar
    33    15     8    1
    34    27    21   ar
@<TRIPOS>MOLECULE
*****
 31 34 0 0 0
SMALL
GASTEIGER

@<TRIPOS>ATOM
      1 C         142.4270  139.2168  162.2708 C.ar    1  UNL1        0.2168
      2 N         143.3046  138.0710  161.8625 N.ar    1  UNL1       -0.1210
      3 N         143.9720  138.4359  160.5696 N.ar    1  UNL1       -0.1393
      4 C         143.5067  139.8073  160.1788 C.ar    1  UNL1        0.1351
      5 S         142.5519  140.2899  161.2302 S.2     1  UNL1       -0.0262
      6 C         143.3080  140.4702  165.1522 C.3     1  UNL1        0.0520
      7 C         141.9791  139.8548  164.8276 C.ar    1  UNL1        0.0615
      8 C         140.8219  139.7075  165.7706 C.ar    1  UNL1        0.0228
      9 C         139.7017  139.0404  165.0289 C.ar    1  UNL1        0.0789
     10 N         140.1666  138.7754  163.6276 N.ar    1  UNL1       -0.1683
     11 N         141.5741  139.2787  163.5032 N.ar    1  UNL1       -0.2100
     12 C         138.4030  138.7604  165.7254 C.3     1  UNL1        0.0647
     13 C         138.2246  139.1476  167.1635 C.3     1  UNL1        0.0788
     14 N         139.3448  139.8147  167.9051 N.3     1  UNL1       -0.2682
     15 C         140.6434  140.0947  167.2087 C.3     1  UNL1        0.1016
     16 C         139.1663  140.2019  169.3433 C.3     1  UNL1        0.0783
     17 C         140.3252  140.7505  170.1217 C.3     1  UNL1        0.0590
     18 C         140.2364  142.1157  170.7369 C.2     1  UNL1        0.0517
     19 O         140.4701  142.2920  172.2081 O.co2   1  UNL1       -0.5491
     20 O         139.9140  143.3046  169.8810 O.co2   1  UNL1       -0.5491
     21 C         143.9232  140.5633  158.9521 C.ar    1  UNL1        0.0267
     22 C         144.3721  141.9900  159.0666 C.ar    1  UNL1        0.0052
     23 C         144.7885  142.7460  157.8399 C.ar    1  UNL1        0.0378
     24 C         144.7560  142.0754  156.4986 C.ar    1  UNL1        0.1488
     25 C         144.3072  140.6488  156.3840 C.ar    1  UNL1        0.0916
     26 CL        144.2747  139.9780  155.0426 Cl      1  UNL1       -0.0791
     27 C         143.8907  139.8927  157.6107 C.ar    1  UNL1        0.0165
     28 O         145.1725  142.8314  155.2717 O.3     1  UNL1       -0.4783
     29 C         146.6264  142.9527  154.9230 C.3     1  UNL1        0.1662
     30 C         147.0713  143.9561  153.9006 C.3     1  UNL1        0.0472
     31 C         147.6353  142.0705  155.5965 C.3     1  UNL1        0.0472
@<TRIPOS>UNITY_ATOM_ATTR
19 1
charge -1
@<TRIPOS>BOND
     1     6     7    1
     2     7     8   ar
     3     8     9   ar
     4     9    10   ar
     5    10    11   ar
     6    11     1    1
     7     1     2   ar
     8     2     3   ar
     9     3     4   ar
    10     4    21    1
    11    21    22   ar
    12    22    23   ar
    13    23    24   ar
    14    24    28    1
    15    28    29    1
    16    29    30    1
    17    29    31    1
    18    24    25   ar
    19    25    26    1
    20    25    27   ar
    21     4     5   ar
    22     9    12    1
    23    12    13    1
    24    13    14    1
    25    14    16    1
    26    16    17    1
    27    17    18    1
    28    18    19   ar
    29    18    20   ar
    30    14    15    1
    31    11     7   ar
    32     5     1   ar
    33    15     8    1
    34    27    21   ar
@<TRIPOS>MOLECULE
*****
 31 34 0 0 0
SMALL
GASTEIGER

@<TRIPOS>ATOM
      1 C         139.3722  138.6342  162.5937 C.ar    1  UNL1        0.2168
      2 N         138.8623  137.4278  163.3250 N.ar    1  UNL1       -0.1210
      3 N         139.1446  137.6176  164.7859 N.ar    1  UNL1       -0.1393
      4 C         139.8289  138.9414  164.9576 C.ar    1  UNL1        0.1351
      5 S         139.9696  139.5696  163.6028 S.2     1  UNL1       -0.0262
      6 C         137.7198  141.0222  161.1049 C.3     1  UNL1        0.0520
      7 C         138.5382  139.9623  160.4291 C.ar    1  UNL1        0.0615
      8 C         138.7408  139.8140  158.9502 C.ar    1  UNL1        0.0228
      9 C         139.6255  138.6247  158.7206 C.ar    1  UNL1        0.0789
     10 N         139.9697  138.0380  160.0575 N.ar    1  UNL1       -0.1683
     11 N         139.2977  138.8647  161.1134 N.ar    1  UNL1       -0.2100
     12 C         140.0034  138.2296  157.3238 C.3     1  UNL1        0.0647
     13 C         139.4966  139.0239  156.1567 C.3     1  UNL1        0.0788
     14 N         138.6119  140.2132  156.3863 N.3     1  UNL1       -0.2682
     15 C         138.2340  140.6083  157.7831 C.3     1  UNL1        0.1016
     16 C         138.1050  141.0075  155.2191 C.3     1  UNL1        0.0783
     17 C         136.9523  140.4954  154.4074 C.3     1  UNL1        0.0590
     18 C         136.0454  139.4431  154.9732 C.2     1  UNL1        0.0517
     19 O         134.9412  139.8303  155.9117 O.co2   1  UNL1       -0.5491
     20 O         136.2426  138.0036  154.6004 O.co2   1  UNL1       -0.5491
     21 C         140.2914  139.5330  166.2561 C.ar    1  UNL1        0.0267
     22 C         141.7199  139.9606  166.4189 C.ar    1  UNL1        0.0052
     23 C         142.1823  140.5522  167.7173 C.ar    1  UNL1        0.0378
     24 C         141.2162  140.7162  168.8530 C.ar    1  UNL1        0.1488
     25 C         139.7878  140.2886  168.6903 C.ar    1  UNL1        0.0916
     26 CL        138.8216  140.4526  169.8260 Cl      1  UNL1       -0.0791
     27 C         139.3253  139.6970  167.3918 C.ar    1  UNL1        0.0165
     28 O         141.6787  141.3079  170.1516 O.3     1  UNL1       -0.4783
     29 C         141.8479  142.7927  170.2812 C.3     1  UNL1        0.1662
     30 C         143.1601  143.3613  170.7336 C.3     1  UNL1        0.0472
     31 C         140.7049  143.7088  169.9584 C.3     1  UNL1        0.0472
@<TRIPOS>UNITY_ATOM_ATTR
19 1
charge -1
@<TRIPOS>BOND
     1     6     7    1
     2     7     8   ar
     3     8     9   ar
     4     9    10   ar
     5    10    11   ar
     6    11     1    1
     7     1     2   ar
     8     2     3   ar
     9     3     4   ar
    10     4    21    1
    11    21    22   ar
    12    22    23   ar
    13    23    24   ar
    14    24    28    1
    15    28    29    1
    16    29    30    1
    17    29    31    1
    18    24    25   ar
    19    25    26    1
    20    25    27   ar
    21     4     5   ar
    22     9    12    1
    23    12    13    1
    24    13    14    1
    25    14    16    1
    26    16    17    1
    27    17    18    1
    28    18    19   ar
    29    18    20   ar
    30    14    15    1
    31    11     7   ar
    32     5     1   ar
    33    15     8    1
    34    27    21   ar
@<TRIPOS>MOLECULE
*****
 31 34 0 0 0
SMALL
GASTEIGER

@<TRIPOS>ATOM
      1 C         138.6821  141.1548  161.2524 C.ar    1  UNL1        0.2168
      2 N         138.0028  140.3016  160.2226 N.ar    1  UNL1       -0.1210
      3 N         138.1596  140.9709  158.8894 N.ar    1  UNL1       -0.1393
      4 C         138.9358  142.2378  159.0952 C.ar    1  UNL1        0.1351
      5 S         139.2588  142.3515  160.5556 S.2     1  UNL1       -0.0262
      6 C         140.3252  142.9061  163.4621 C.3     1  UNL1        0.0520
      7 C         139.5247  141.6677  163.7368 C.ar    1  UNL1        0.0615
      8 C         139.3389  141.0168  165.0754 C.ar    1  UNL1        0.0228
      9 C         138.4688  139.8095  164.8870 C.ar    1  UNL1        0.0789
     10 N         138.1169  139.7143  163.4320 N.ar    1  UNL1       -0.1683
     11 N         138.7695  140.8627  162.7211 N.ar    1  UNL1       -0.2100
     12 C         138.1095  138.9529  166.0647 C.3     1  UNL1        0.0647
     13 C         138.6201  139.3036  167.4308 C.3     1  UNL1        0.0788
     14 N         139.4902  140.5108  167.6191 N.3     1  UNL1       -0.2682
     15 C         139.8496  141.3675  166.4415 C.3     1  UNL1        0.1016
     16 C         140.0009  140.8615  168.9853 C.3     1  UNL1        0.0783
     17 C         140.5883  142.2177  169.2411 C.3     1  UNL1        0.0590
     18 C         140.2859  142.9365  170.5226 C.2     1  UNL1        0.0517
     19 O         140.4736  142.2380  171.8366 O.co2   1  UNL1       -0.5491
     20 O         139.7958  144.3538  170.4898 O.co2   1  UNL1       -0.5491
     21 C         139.3214  143.2189  158.0280 C.ar    1  UNL1        0.0267
     22 C         138.5378  143.2841  156.7506 C.ar    1  UNL1        0.0052
     23 C         138.9235  144.2652  155.6836 C.ar    1  UNL1        0.0378
     24 C         140.0927  145.1809  155.8937 C.ar    1  UNL1        0.1488
     25 C         140.8763  145.1156  157.1710 C.ar    1  UNL1        0.0916
     26 CL        142.0457  146.0314  157.3813 Cl      1  UNL1       -0.0791
     27 C         140.4907  144.1346  158.2382 C.ar    1  UNL1        0.0165
     28 O         140.4784  146.1620  154.8265 O.3     1  UNL1       -0.4783
     29 C         139.8596  147.5282  154.8047 C.3     1  UNL1        0.1662
     30 C         138.9033  147.9358  155.8861 C.3     1  UNL1        0.0472
     31 C         140.1970  148.4869  153.7016 C.3     1  UNL1        0.0472
@<TRIPOS>UNITY_ATOM_ATTR
19 1
charge -1
@<TRIPOS>BOND
     1     6     7    1
     2     7     8   ar
     3     8     9   ar
     4     9    10   ar
     5    10    11   ar
     6    11     1    1
     7     1     2   ar
     8     2     3   ar
     9     3     4   ar
    10     4    21    1
    11    21    22   ar
    12    22    23   ar
    13    23    24   ar
    14    24    28    1
    15    28    29    1
    16    29    30    1
    17    29    31    1
    18    24    25   ar
    19    25    26    1
    20    25    27   ar
    21     4     5   ar
    22     9    12    1
    23    12    13    1
    24    13    14    1
    25    14    16    1
    26    16    17    1
    27    17    18    1
    28    18    19   ar
    29    18    20   ar
    30    14    15    1
    31    11     7   ar
    32     5     1   ar
    33    15     8    1
    34    27    21   ar
@<TRIPOS>MOLECULE
*****
 31 34 0 0 0
SMALL
GASTEIGER

@<TRIPOS>ATOM
      1 C         139.7293  144.3723  161.6875 C.ar    1  UNL1        0.2168
      2 N         139.2940  145.8075  161.7128 N.ar    1  UNL1       -0.1210
      3 N         139.5710  146.3997  160.3628 N.ar    1  UNL1       -0.1393
      4 C         140.1775  145.3305  159.5032 C.ar    1  UNL1        0.1351
      5 S         140.2754  144.0775  160.3219 S.2     1  UNL1       -0.0262
      6 C         141.6425  144.3272  164.3309 C.3     1  UNL1        0.0520
      7 C         140.5145  143.3814  164.0427 C.ar    1  UNL1        0.0615
      8 C         140.0678  142.2489  164.9190 C.ar    1  UNL1        0.0228
      9 C         138.9123  141.5696  164.2456 C.ar    1  UNL1        0.0789
     10 N         138.6449  142.2824  162.9531 N.ar    1  UNL1       -0.1683
     11 N         139.6351  143.4021  162.8277 N.ar    1  UNL1       -0.2100
     12 C         138.2530  140.3899  164.8963 C.3     1  UNL1        0.0647
     13 C         138.7492  139.8894  166.2204 C.3     1  UNL1        0.0788
     14 N         139.9047  140.5686  166.8938 N.3     1  UNL1       -0.2682
     15 C         140.5640  141.7484  166.2431 C.3     1  UNL1        0.1016
     16 C         140.4008  140.0681  168.2180 C.3     1  UNL1        0.0783
     17 C         140.5734  141.0212  169.3632 C.3     1  UNL1        0.0590
     18 C         140.4250  140.5334  170.7739 C.2     1  UNL1        0.0517
     19 O         139.3750  139.5160  171.1091 O.co2   1  UNL1       -0.5491
     20 O         141.3265  141.0630  171.8494 O.co2   1  UNL1       -0.5491
     21 C         140.6103  145.4869  158.0755 C.ar    1  UNL1        0.0267
     22 C         141.8132  144.7463  157.5710 C.ar    1  UNL1        0.0052
     23 C         142.2459  144.9027  156.1434 C.ar    1  UNL1        0.0378
     24 C         141.4757  145.7997  155.2202 C.ar    1  UNL1        0.1488
     25 C         140.2729  146.5402  155.7246 C.ar    1  UNL1        0.0916
     26 CL        139.5026  147.4372  154.8014 Cl      1  UNL1       -0.0791
     27 C         139.8401  146.3838  157.1523 C.ar    1  UNL1        0.0165
     28 O         141.9084  145.9560  153.7924 O.3     1  UNL1       -0.4783
     29 C         142.7709  144.9096  153.1512 C.3     1  UNL1        0.1662
     30 C         142.1649  143.6170  152.6909 C.3     1  UNL1        0.0472
     31 C         144.2395  145.1558  152.9704 C.3     1  UNL1        0.0472
@<TRIPOS>UNITY_ATOM_ATTR
19 1
charge -1
@<TRIPOS>BOND
     1     6     7    1
     2     7     8   ar
     3     8     9   ar
     4     9    10   ar
     5    10    11   ar
     6    11     1    1
     7     1     2   ar
     8     2     3   ar
     9     3     4   ar
    10     4    21    1
    11    21    22   ar
    12    22    23   ar
    13    23    24   ar
    14    24    28    1
    15    28    29    1
    16    29    30    1
    17    29    31    1
    18    24    25   ar
    19    25    26    1
    20    25    27   ar
    21     4     5   ar
    22     9    12    1
    23    12    13    1
    24    13    14    1
    25    14    16    1
    26    16    17    1
    27    17    18    1
    28    18    19   ar
    29    18    20   ar
    30    14    15    1
    31    11     7   ar
    32     5     1   ar
    33    15     8    1
    34    27    21   ar
@<TRIPOS>MOLECULE
*****
 31 34 0 0 0
SMALL
GASTEIGER

@<TRIPOS>ATOM
      1 C         142.4837  142.9862  162.0839 C.ar    1  UNL1        0.2168
      2 N         141.8052  144.2275  161.5850 N.ar    1  UNL1       -0.1210
      3 N         142.1680  144.4053  160.1404 N.ar    1  UNL1       -0.1393
      4 C         143.0708  143.2740  159.7465 C.ar    1  UNL1        0.1351
      5 S         143.2659  142.3970  160.9477 S.2     1  UNL1       -0.0262
      6 C         143.9633  144.1965  164.7289 C.3     1  UNL1        0.0520
      7 C         143.0756  142.9879  164.6906 C.ar    1  UNL1        0.0615
      8 C         142.7122  142.1235  165.8614 C.ar    1  UNL1        0.0228
      9 C         141.8075  141.0329  165.3692 C.ar    1  UNL1        0.0789
     10 N         141.6118  141.2234  163.8942 N.ar    1  UNL1       -0.1683
     11 N         142.3956  142.4316  163.4748 N.ar    1  UNL1       -0.2100
     12 C         141.2788  140.0074  166.3276 C.3     1  UNL1        0.0647
     13 C         141.6548  140.0724  167.7783 C.3     1  UNL1        0.0788
     14 N         142.5595  141.1629  168.2704 N.3     1  UNL1       -0.2682
     15 C         143.0882  142.1885  167.3120 C.3     1  UNL1        0.1016
     16 C         142.9355  141.2279  169.7211 C.3     1  UNL1        0.0783
     17 C         142.2186  140.3697  170.7209 C.3     1  UNL1        0.0590
     18 C         140.8550  140.7634  171.2064 C.2     1  UNL1        0.0517
     19 O         140.6548  142.0827  171.8914 O.co2   1  UNL1       -0.5491
     20 O         139.6917  139.8378  171.0069 O.co2   1  UNL1       -0.5491
     21 C         143.6728  143.0577  158.3898 C.ar    1  UNL1        0.0267
     22 C         145.0440  142.4627  158.2638 C.ar    1  UNL1        0.0052
     23 C         145.6458  142.2464  156.9071 C.ar    1  UNL1        0.0378
     24 C         144.8766  142.6250  155.6763 C.ar    1  UNL1        0.1488
     25 C         143.5055  143.2199  155.8022 C.ar    1  UNL1        0.0916
     26 CL        142.7361  143.5986  154.5713 Cl      1  UNL1       -0.0791
     27 C         142.9035  143.4363  157.1590 C.ar    1  UNL1        0.0165
     28 O         145.4786  142.4087  154.3194 O.3     1  UNL1       -0.4783
     29 C         146.5131  143.3612  153.7974 C.3     1  UNL1        0.1662
     30 C         147.9710  143.0578  153.9779 C.3     1  UNL1        0.0472
     31 C         146.0898  144.6170  153.0948 C.3     1  UNL1        0.0472
@<TRIPOS>UNITY_ATOM_ATTR
19 1
charge -1
@<TRIPOS>BOND
     1     6     7    1
     2     7     8   ar
     3     8     9   ar
     4     9    10   ar
     5    10    11   ar
     6    11     1    1
     7     1     2   ar
     8     2     3   ar
     9     3     4   ar
    10     4    21    1
    11    21    22   ar
    12    22    23   ar
    13    23    24   ar
    14    24    28    1
    15    28    29    1
    16    29    30    1
    17    29    31    1
    18    24    25   ar
    19    25    26    1
    20    25    27   ar
    21     4     5   ar
    22     9    12    1
    23    12    13    1
    24    13    14    1
    25    14    16    1
    26    16    17    1
    27    17    18    1
    28    18    19   ar
    29    18    20   ar
    30    14    15    1
    31    11     7   ar
    32     5     1   ar
    33    15     8    1
    34    27    21   ar
