@<TRIPOS>MOLECULE
*****
 28 30 0 0 0
SMALL
GASTEIGER

@<TRIPOS>ATOM
      1 C         140.7795  140.9589  169.8931 C.3     1  UNL1        0.0975
      2 C         140.7637  141.6077  171.2455 C.3     1  UNL1        0.0781
      3 N         142.1316  142.1641  171.5086 N.3     1  UNL1       -0.2968
      4 C         142.9927  141.8592  170.3188 C.3     1  UNL1        0.0735
      5 C         142.1571  141.1143  169.3204 C.3     1  UNL1        0.0480
      6 H         142.5272  141.7302  172.3426 H       1  UNL1        0.1233
      7 C         142.6181  140.6130  167.9840 C.ar    1  UNL1       -0.0207
      8 C         142.8646  139.1478  167.7770 C.ar    1  UNL1       -0.0043
      9 C         143.3257  138.6465  166.4406 C.ar    1  UNL1        0.0035
     10 C         143.5402  139.6101  165.3111 C.ar    1  UNL1        0.0714
     11 C         143.2937  141.0751  165.5182 C.ar    1  UNL1        0.0035
     12 C         142.8326  141.5765  166.8547 C.ar    1  UNL1       -0.0043
     13 C         144.0013  139.1087  163.9747 C.3     1  UNL1        0.4186
     14 F         144.4624  138.6074  162.6383 F       1  UNL1       -0.1659
     15 F         142.6668  138.4589  163.7581 F       1  UNL1       -0.1659
     16 F         145.3358  139.7585  164.1914 F       1  UNL1       -0.1659
     17 N         139.6408  140.0313  167.7499 N.am    1  UNL1       -0.3004
     18 C         139.6209  140.2747  169.2299 C.2     1  UNL1        0.2240
     19 O         138.4425  139.8340  170.0467 O.2     1  UNL1       -0.2750
     20 H         140.4143  140.3205  167.2139 H       1  UNL1        0.1497
     21 C         138.4824  139.3471  167.0867 C.3     1  UNL1        0.1163
     22 C         138.6180  138.2584  161.1879 C.3     1  UNL1        0.0310
     23 C         138.5841  138.5306  162.6626 C.ar    1  UNL1       -0.0219
     24 C         138.9949  137.4623  163.6320 C.ar    1  UNL1       -0.0045
     25 C         138.9610  137.7345  165.1068 C.ar    1  UNL1       -0.0029
     26 C         138.5163  139.0750  165.6120 C.ar    1  UNL1       -0.0026
     27 C         138.1055  140.1432  164.6425 C.ar    1  UNL1       -0.0029
     28 C         138.1394  139.8711  163.1678 C.ar    1  UNL1       -0.0045
@<TRIPOS>BOND
     1    22    23    1
     2    23    24   ar
     3    24    25   ar
     4    25    26   ar
     5    26    21    1
     6    21    17    1
     7    17    18   am
     8    18    19    2
     9     1    18    1
    10     1     2    1
    11     2     3    1
    12     3     4    1
    13     4     5    1
    14     5     7    1
    15     7     8   ar
    16     8     9   ar
    17     9    10   ar
    18    10    13    1
    19    13    14    1
    20    13    15    1
    21    13    16    1
    22    10    11   ar
    23    11    12   ar
    24    26    27   ar
    25    27    28   ar
    26    28    23   ar
    27     5     1    1
    28    12     7   ar
    29    17    20    1
    30     3     6    1
@<TRIPOS>MOLECULE
*****
 28 30 0 0 0
SMALL
GASTEIGER

@<TRIPOS>ATOM
      1 C         141.5959  140.4492  169.7806 C.3     1  UNL1        0.0975
      2 C         141.8341  140.8986  171.1918 C.3     1  UNL1        0.0781
      3 N         140.7416  141.8566  171.5639 N.3     1  UNL1       -0.2968
      4 C         139.8281  141.9994  170.3827 C.3     1  UNL1        0.0735
      5 C         140.3561  141.1295  169.2806 C.3     1  UNL1        0.0480
      6 H         141.1429  142.7635  171.8027 H       1  UNL1        0.1233
      7 C         139.7506  140.9683  167.9178 C.ar    1  UNL1       -0.0207
      8 C         139.9378  142.0378  166.8827 C.ar    1  UNL1       -0.0043
      9 C         139.3323  141.8766  165.5198 C.ar    1  UNL1        0.0035
     10 C         138.5396  140.6461  165.1920 C.ar    1  UNL1        0.0714
     11 C         138.3525  139.5767  166.2270 C.ar    1  UNL1        0.0035
     12 C         138.9580  139.7379  167.5899 C.ar    1  UNL1       -0.0043
     13 C         137.9341  140.4849  163.8291 C.3     1  UNL1        0.4186
     14 F         137.3285  140.3238  162.4663 F       1  UNL1       -0.1659
     15 F         138.4473  139.0768  163.7676 F       1  UNL1       -0.1659
     16 F         137.4208  141.8931  163.8907 F       1  UNL1       -0.1659
     17 N         142.5613  139.6197  167.5157 N.am    1  UNL1       -0.3004
     18 C         142.4479  139.4882  169.0056 C.2     1  UNL1        0.2240
     19 O         143.1865  138.3958  169.7205 O.2     1  UNL1       -0.2750
     20 H         142.0766  140.3367  167.0465 H       1  UNL1        0.1497
     21 C         143.4133  138.6587  166.7407 C.3     1  UNL1        0.1163
     22 C         142.5024  137.9132  160.8573 C.3     1  UNL1        0.0310
     23 C         142.7301  138.0996  162.3281 C.ar    1  UNL1       -0.0219
     24 C         143.9694  138.7913  162.8135 C.ar    1  UNL1       -0.0045
     25 C         144.1972  138.9777  164.2843 C.ar    1  UNL1       -0.0029
     26 C         143.1856  138.4723  165.2698 C.ar    1  UNL1       -0.0026
     27 C         141.9463  137.7806  164.7845 C.ar    1  UNL1       -0.0029
     28 C         141.7185  137.5943  163.3137 C.ar    1  UNL1       -0.0045
@<TRIPOS>BOND
     1    22    23    1
     2    23    24   ar
     3    24    25   ar
     4    25    26   ar
     5    26    21    1
     6    21    17    1
     7    17    18   am
     8    18    19    2
     9     1    18    1
    10     1     2    1
    11     2     3    1
    12     3     4    1
    13     4     5    1
    14     5     7    1
    15     7     8   ar
    16     8     9   ar
    17     9    10   ar
    18    10    13    1
    19    13    14    1
    20    13    15    1
    21    13    16    1
    22    10    11   ar
    23    11    12   ar
    24    26    27   ar
    25    27    28   ar
    26    28    23   ar
    27     5     1    1
    28    12     7   ar
    29    17    20    1
    30     3     6    1
@<TRIPOS>MOLECULE
*****
 28 30 0 0 0
SMALL
GASTEIGER

@<TRIPOS>ATOM
      1 C         143.3886  141.5647  162.4303 C.3     1  UNL1        0.0975
      2 C         144.7579  141.5478  161.8181 C.3     1  UNL1        0.0781
      3 N         145.3028  142.9446  161.8624 N.3     1  UNL1       -0.2968
      4 C         144.2702  143.8248  162.5021 C.3     1  UNL1        0.0735
      5 C         143.0872  142.9720  162.8530 C.3     1  UNL1        0.0480
      6 H         145.4970  143.2706  160.9156 H       1  UNL1        0.1233
      7 C         141.8246  143.4437  163.5112 C.ar    1  UNL1       -0.0207
      8 C         140.9252  144.4118  162.8011 C.ar    1  UNL1       -0.0043
      9 C         139.6626  144.8835  163.4593 C.ar    1  UNL1        0.0035
     10 C         139.2992  144.3873  164.8274 C.ar    1  UNL1        0.0714
     11 C         140.1986  143.4192  165.5374 C.ar    1  UNL1        0.0035
     12 C         141.4612  142.9475  164.8792 C.ar    1  UNL1       -0.0043
     13 C         138.0365  144.8590  165.4856 C.3     1  UNL1        0.4186
     14 F         136.7739  145.3306  166.1436 F       1  UNL1       -0.1659
     15 F         138.8429  145.4794  166.5878 F       1  UNL1       -0.1659
     16 F         137.2302  144.2385  164.3833 F       1  UNL1       -0.1659
     17 N         141.0953  140.4161  162.0162 N.am    1  UNL1       -0.3004
     18 C         142.4801  140.3820  162.5915 C.2     1  UNL1        0.2240
     19 O         142.9566  139.1652  163.3280 O.2     1  UNL1       -0.2750
     20 H         140.7826  141.2147  161.5328 H       1  UNL1        0.1497
     21 C         140.1869  139.2334  162.1774 C.3     1  UNL1        0.1163
     22 C         137.3986  138.2825  167.4044 C.3     1  UNL1        0.0310
     23 C         138.0956  138.5202  166.0976 C.ar    1  UNL1       -0.0219
     24 C         138.1924  139.9098  165.5411 C.ar    1  UNL1       -0.0045
     25 C         138.8895  140.1475  164.2344 C.ar    1  UNL1       -0.0029
     26 C         139.4898  138.9957  163.4841 C.ar    1  UNL1       -0.0026
     27 C         139.3930  137.6061  164.0406 C.ar    1  UNL1       -0.0029
     28 C         138.6959  137.3684  165.3474 C.ar    1  UNL1       -0.0045
@<TRIPOS>BOND
     1    22    23    1
     2    23    24   ar
     3    24    25   ar
     4    25    26   ar
     5    26    21    1
     6    21    17    1
     7    17    18   am
     8    18    19    2
     9     1    18    1
    10     1     2    1
    11     2     3    1
    12     3     4    1
    13     4     5    1
    14     5     7    1
    15     7     8   ar
    16     8     9   ar
    17     9    10   ar
    18    10    13    1
    19    13    14    1
    20    13    15    1
    21    13    16    1
    22    10    11   ar
    23    11    12   ar
    24    26    27   ar
    25    27    28   ar
    26    28    23   ar
    27     5     1    1
    28    12     7   ar
    29    17    20    1
    30     3     6    1
@<TRIPOS>MOLECULE
*****
 28 30 0 0 0
SMALL
GASTEIGER

@<TRIPOS>ATOM
      1 C         143.1922  142.1110  162.7626 C.3     1  UNL1        0.0975
      2 C         144.0767  142.6414  161.6733 C.3     1  UNL1        0.0781
      3 N         144.6826  143.9270  162.1530 N.3     1  UNL1       -0.2968
      4 C         144.1725  144.1912  163.5387 C.3     1  UNL1        0.0735
      5 C         143.2514  143.0689  163.9154 C.3     1  UNL1        0.0480
      6 H         144.4113  144.6901  161.5329 H       1  UNL1        0.1233
      7 C         142.5183  142.9290  165.2165 C.ar    1  UNL1       -0.0207
      8 C         143.2554  142.4988  166.4501 C.ar    1  UNL1       -0.0043
      9 C         142.5222  142.3589  167.7513 C.ar    1  UNL1        0.0035
     10 C         141.0521  142.6492  167.8189 C.ar    1  UNL1        0.0714
     11 C         140.3151  143.0794  166.5852 C.ar    1  UNL1        0.0035
     12 C         141.0483  143.2192  165.2841 C.ar    1  UNL1       -0.0043
     13 C         140.3190  142.5093  169.1200 C.3     1  UNL1        0.4186
     14 F         139.5858  142.3693  170.4211 F       1  UNL1       -0.1659
     15 F         140.9252  143.7947  169.5997 F       1  UNL1       -0.1659
     16 F         139.7128  141.2238  168.6402 F       1  UNL1       -0.1659
     17 N         140.9119  140.9041  162.4564 N.am    1  UNL1       -0.3004
     18 C         142.3894  140.8451  162.7084 C.2     1  UNL1        0.2240
     19 O         143.0641  139.5201  162.9063 O.2     1  UNL1       -0.2750
     20 H         140.4691  141.7738  162.3266 H       1  UNL1        0.1497
     21 C         140.1091  139.6383  162.4023 C.3     1  UNL1        0.1163
     22 C         137.3073  137.6499  167.3213 C.3     1  UNL1        0.0310
     23 C         138.0077  138.1470  166.0915 C.ar    1  UNL1       -0.0219
     24 C         138.6256  137.1714  165.1342 C.ar    1  UNL1       -0.0045
     25 C         139.3260  137.6685  163.9045 C.ar    1  UNL1       -0.0029
     26 C         139.4086  139.1412  163.6320 C.ar    1  UNL1       -0.0026
     27 C         138.7908  140.1168  164.5893 C.ar    1  UNL1       -0.0029
     28 C         138.0903  139.6197  165.8190 C.ar    1  UNL1       -0.0045
@<TRIPOS>BOND
     1    22    23    1
     2    23    24   ar
     3    24    25   ar
     4    25    26   ar
     5    26    21    1
     6    21    17    1
     7    17    18   am
     8    18    19    2
     9     1    18    1
    10     1     2    1
    11     2     3    1
    12     3     4    1
    13     4     5    1
    14     5     7    1
    15     7     8   ar
    16     8     9   ar
    17     9    10   ar
    18    10    13    1
    19    13    14    1
    20    13    15    1
    21    13    16    1
    22    10    11   ar
    23    11    12   ar
    24    26    27   ar
    25    27    28   ar
    26    28    23   ar
    27     5     1    1
    28    12     7   ar
    29    17    20    1
    30     3     6    1
@<TRIPOS>MOLECULE
*****
 28 30 0 0 0
SMALL
GASTEIGER

@<TRIPOS>ATOM
      1 C         142.2961  141.5021  169.7000 C.3     1  UNL1        0.0975
      2 C         141.9307  141.7734  171.1293 C.3     1  UNL1        0.0781
      3 N         140.8959  140.7689  171.5419 N.3     1  UNL1       -0.2968
      4 C         140.6218  139.8768  170.3675 C.3     1  UNL1        0.0735
      5 C         141.4872  140.3300  169.2292 C.3     1  UNL1        0.0480
      6 H         140.0395  141.2483  171.8198 H       1  UNL1        0.1233
      7 C         141.5351  139.7184  167.8604 C.ar    1  UNL1       -0.0207
      8 C         142.7894  139.0494  167.3815 C.ar    1  UNL1       -0.0043
      9 C         142.8374  138.4377  166.0127 C.ar    1  UNL1        0.0035
     10 C         141.6312  138.4951  165.1228 C.ar    1  UNL1        0.0714
     11 C         140.3770  139.1640  165.6018 C.ar    1  UNL1        0.0035
     12 C         140.3290  139.7756  166.9706 C.ar    1  UNL1       -0.0043
     13 C         141.6792  137.8834  163.7540 C.3     1  UNL1        0.4186
     14 F         141.7271  137.2717  162.3853 F       1  UNL1       -0.1659
     15 F         142.0231  139.2209  163.1684 F       1  UNL1       -0.1659
     16 F         141.3353  136.5459  164.3396 F       1  UNL1       -0.1659
     17 N         143.1091  142.4017  167.4022 N.am    1  UNL1       -0.3004
     18 C         143.2951  142.2686  168.8846 C.2     1  UNL1        0.2240
     19 O         144.4799  142.9018  169.5518 O.2     1  UNL1       -0.2750
     20 H         142.3315  141.9860  166.9643 H       1  UNL1        0.1497
     21 C         144.1080  143.1680  166.5868 C.3     1  UNL1        0.1163
     22 C         144.4935  142.2435  160.6710 C.3     1  UNL1        0.0310
     23 C         144.3971  142.4747  162.1500 C.ar    1  UNL1       -0.0219
     24 C         144.5412  141.3229  163.1000 C.ar    1  UNL1       -0.0045
     25 C         144.4448  141.5540  164.5790 C.ar    1  UNL1       -0.0029
     26 C         144.2044  142.9369  165.1079 C.ar    1  UNL1       -0.0026
     27 C         144.0603  144.0887  164.1578 C.ar    1  UNL1       -0.0029
     28 C         144.1567  143.8575  162.6789 C.ar    1  UNL1       -0.0045
@<TRIPOS>BOND
     1    22    23    1
     2    23    24   ar
     3    24    25   ar
     4    25    26   ar
     5    26    21    1
     6    21    17    1
     7    17    18   am
     8    18    19    2
     9     1    18    1
    10     1     2    1
    11     2     3    1
    12     3     4    1
    13     4     5    1
    14     5     7    1
    15     7     8   ar
    16     8     9   ar
    17     9    10   ar
    18    10    13    1
    19    13    14    1
    20    13    15    1
    21    13    16    1
    22    10    11   ar
    23    11    12   ar
    24    26    27   ar
    25    27    28   ar
    26    28    23   ar
    27     5     1    1
    28    12     7   ar
    29    17    20    1
    30     3     6    1
@<TRIPOS>MOLECULE
*****
 28 30 0 0 0
SMALL
GASTEIGER

@<TRIPOS>ATOM
      1 C         143.3909  141.3354  162.8148 C.3     1  UNL1        0.0975
      2 C         144.2846  141.6748  161.6589 C.3     1  UNL1        0.0781
      3 N         145.6247  142.0652  162.2081 N.3     1  UNL1       -0.2968
      4 C         145.5592  141.9671  163.7035 C.3     1  UNL1        0.0735
      5 C         144.1786  141.5161  164.0784 C.3     1  UNL1        0.0480
      6 H         145.8460  143.0222  161.9334 H       1  UNL1        0.1233
      7 C         143.6743  141.2861  165.4723 C.ar    1  UNL1       -0.0207
      8 C         143.5458  142.4392  166.4231 C.ar    1  UNL1       -0.0043
      9 C         143.0415  142.2092  167.8169 C.ar    1  UNL1        0.0035
     10 C         142.6658  140.8263  168.2600 C.ar    1  UNL1        0.0714
     11 C         142.7943  139.6733  167.3092 C.ar    1  UNL1        0.0035
     12 C         143.2986  139.9032  165.9154 C.ar    1  UNL1       -0.0043
     13 C         142.1615  140.5963  169.6539 C.3     1  UNL1        0.4186
     14 F         141.6573  140.3664  171.0477 F       1  UNL1       -0.1659
     15 F         141.0656  139.7261  169.1138 F       1  UNL1       -0.1659
     16 F         143.2575  141.4666  170.1939 F       1  UNL1       -0.1659
     17 N         141.6174  139.4368  162.8311 N.am    1  UNL1       -0.3004
     18 C         141.9605  140.8930  162.7231 C.2     1  UNL1        0.2240
     19 O         140.8732  141.9069  162.5233 O.2     1  UNL1       -0.2750
     20 H         142.3310  138.7714  162.9623 H       1  UNL1        0.1497
     21 C         140.1871  138.9944  162.7394 C.3     1  UNL1        0.1163
     22 C         137.0195  138.0266  167.7424 C.3     1  UNL1        0.0310
     23 C         137.8114  138.2686  166.4917 C.ar    1  UNL1       -0.0219
     24 C         138.3010  137.1077  165.6776 C.ar    1  UNL1       -0.0045
     25 C         139.0929  137.3497  164.4269 C.ar    1  UNL1       -0.0029
     26 C         139.3952  138.7524  163.9902 C.ar    1  UNL1       -0.0026
     27 C         138.9056  139.9133  164.8042 C.ar    1  UNL1       -0.0029
     28 C         138.1137  139.6713  166.0549 C.ar    1  UNL1       -0.0045
@<TRIPOS>BOND
     1    22    23    1
     2    23    24   ar
     3    24    25   ar
     4    25    26   ar
     5    26    21    1
     6    21    17    1
     7    17    18   am
     8    18    19    2
     9     1    18    1
    10     1     2    1
    11     2     3    1
    12     3     4    1
    13     4     5    1
    14     5     7    1
    15     7     8   ar
    16     8     9   ar
    17     9    10   ar
    18    10    13    1
    19    13    14    1
    20    13    15    1
    21    13    16    1
    22    10    11   ar
    23    11    12   ar
    24    26    27   ar
    25    27    28   ar
    26    28    23   ar
    27     5     1    1
    28    12     7   ar
    29    17    20    1
    30     3     6    1
@<TRIPOS>MOLECULE
*****
 28 30 0 0 0
SMALL
GASTEIGER

@<TRIPOS>ATOM
      1 C         141.8478  140.2233  167.4105 C.3     1  UNL1        0.0975
      2 C         142.6046  139.7574  168.6189 C.3     1  UNL1        0.0781
      3 N         143.2570  140.9533  169.2467 N.3     1  UNL1       -0.2968
      4 C         142.9033  142.1583  168.4264 C.3     1  UNL1        0.0735
      5 C         142.0324  141.7071  167.2915 C.3     1  UNL1        0.0480
      6 H         144.2693  140.8284  169.2598 H       1  UNL1        0.1233
      7 C         141.4486  142.5855  166.2250 C.ar    1  UNL1       -0.0207
      8 C         142.2911  143.0102  165.0589 C.ar    1  UNL1       -0.0043
      9 C         141.7073  143.8887  163.9924 C.ar    1  UNL1        0.0035
     10 C         140.2810  144.3424  164.0919 C.ar    1  UNL1        0.0714
     11 C         139.4386  143.9177  165.2580 C.ar    1  UNL1        0.0035
     12 C         140.0224  143.0393  166.3245 C.ar    1  UNL1       -0.0043
     13 C         139.6972  145.2209  163.0254 C.3     1  UNL1        0.4186
     14 F         139.1135  146.0994  161.9588 F       1  UNL1       -0.1659
     15 F         138.3481  144.6085  163.2595 F       1  UNL1       -0.1659
     16 F         141.0464  145.8333  162.7913 F       1  UNL1       -0.1659
     17 N         139.5489  139.3611  166.5608 N.am    1  UNL1       -0.3004
     18 C         141.0469  139.3573  166.4838 C.2     1  UNL1        0.2240
     19 O         141.7440  138.4875  165.4801 O.2     1  UNL1       -0.2750
     20 H         139.0913  139.9320  167.2196 H       1  UNL1        0.1497
     21 C         138.7480  138.4952  165.6342 C.3     1  UNL1        0.1163
     22 C         137.8599  140.2016  159.9510 C.3     1  UNL1        0.0310
     23 C         138.0819  139.7750  161.3718 C.ar    1  UNL1       -0.0219
     24 C         137.9202  140.7657  162.4863 C.ar    1  UNL1       -0.0045
     25 C         138.1422  140.3391  163.9071 C.ar    1  UNL1       -0.0029
     26 C         138.5260  138.9218  164.2134 C.ar    1  UNL1       -0.0026
     27 C         138.6877  137.9311  163.0988 C.ar    1  UNL1       -0.0029
     28 C         138.4656  138.3577  161.6780 C.ar    1  UNL1       -0.0045
@<TRIPOS>BOND
     1    22    23    1
     2    23    24   ar
     3    24    25   ar
     4    25    26   ar
     5    26    21    1
     6    21    17    1
     7    17    18   am
     8    18    19    2
     9     1    18    1
    10     1     2    1
    11     2     3    1
    12     3     4    1
    13     4     5    1
    14     5     7    1
    15     7     8   ar
    16     8     9   ar
    17     9    10   ar
    18    10    13    1
    19    13    14    1
    20    13    15    1
    21    13    16    1
    22    10    11   ar
    23    11    12   ar
    24    26    27   ar
    25    27    28   ar
    26    28    23   ar
    27     5     1    1
    28    12     7   ar
    29    17    20    1
    30     3     6    1
@<TRIPOS>MOLECULE
*****
 28 30 0 0 0
SMALL
GASTEIGER

@<TRIPOS>ATOM
      1 C         140.4358  144.3588  162.9061 C.3     1  UNL1        0.0975
      2 C         140.1672  145.6749  162.2385 C.3     1  UNL1        0.0781
      3 N         138.6823  145.8235  162.0871 N.3     1  UNL1       -0.2968
      4 C         138.0331  144.5991  162.6612 C.3     1  UNL1        0.0735
      5 C         139.1169  143.6939  163.1673 C.3     1  UNL1        0.0480
      6 H         138.4422  145.9120  161.0997 H       1  UNL1        0.1233
      7 C         138.9167  142.3583  163.8200 C.ar    1  UNL1       -0.0207
      8 C         139.2967  142.1618  165.2578 C.ar    1  UNL1       -0.0043
      9 C         139.0965  140.8262  165.9105 C.ar    1  UNL1        0.0035
     10 C         138.5165  139.6871  165.1257 C.ar    1  UNL1        0.0714
     11 C         138.1365  139.8836  163.6879 C.ar    1  UNL1        0.0035
     12 C         138.3367  141.2192  163.0352 C.ar    1  UNL1       -0.0043
     13 C         138.3163  138.3515  165.7784 C.3     1  UNL1        0.4186
     14 F         138.1162  137.0158  166.4311 F       1  UNL1       -0.1659
     15 F         137.3754  138.9752  166.7661 F       1  UNL1       -0.1659
     16 F         139.2573  137.7277  164.7906 F       1  UNL1       -0.1659
     17 N         142.3002  142.5858  162.5448 N.am    1  UNL1       -0.3004
     18 C         141.7863  143.8048  163.2518 C.2     1  UNL1        0.2240
     19 O         142.6227  144.4699  164.3043 O.2     1  UNL1       -0.2750
     20 H         141.7512  142.1493  161.8539 H       1  UNL1        0.1497
     21 C         143.6506  142.0318  162.8904 C.3     1  UNL1        0.1163
     22 C         144.1334  137.5701  166.8728 C.3     1  UNL1        0.0310
     23 C         144.0127  138.6855  165.8772 C.ar    1  UNL1       -0.0219
     24 C         142.7925  139.5578  165.8725 C.ar    1  UNL1       -0.0045
     25 C         142.6718  140.6733  164.8769 C.ar    1  UNL1       -0.0029
     26 C         143.7713  140.9164  163.8860 C.ar    1  UNL1       -0.0026
     27 C         144.9916  140.0441  163.8908 C.ar    1  UNL1       -0.0029
     28 C         145.1122  138.9286  164.8863 C.ar    1  UNL1       -0.0045
@<TRIPOS>BOND
     1    22    23    1
     2    23    24   ar
     3    24    25   ar
     4    25    26   ar
     5    26    21    1
     6    21    17    1
     7    17    18   am
     8    18    19    2
     9     1    18    1
    10     1     2    1
    11     2     3    1
    12     3     4    1
    13     4     5    1
    14     5     7    1
    15     7     8   ar
    16     8     9   ar
    17     9    10   ar
    18    10    13    1
    19    13    14    1
    20    13    15    1
    21    13    16    1
    22    10    11   ar
    23    11    12   ar
    24    26    27   ar
    25    27    28   ar
    26    28    23   ar
    27     5     1    1
    28    12     7   ar
    29    17    20    1
    30     3     6    1
@<TRIPOS>MOLECULE
*****
 28 30 0 0 0
SMALL
GASTEIGER

@<TRIPOS>ATOM
      1 C         139.5970  140.6440  168.5918 C.3     1  UNL1        0.0975
      2 C         139.0994  140.5797  170.0054 C.3     1  UNL1        0.0781
      3 N         139.5791  141.8071  170.7220 N.3     1  UNL1       -0.2968
      4 C         140.3732  142.6300  169.7512 C.3     1  UNL1        0.0735
      5 C         140.3842  141.9112  168.4347 C.3     1  UNL1        0.0480
      6 H         140.1673  141.5395  171.5111 H       1  UNL1        0.1233
      7 C         141.0632  142.3776  167.1812 C.ar    1  UNL1       -0.0207
      8 C         140.2663  143.0483  166.1016 C.ar    1  UNL1       -0.0043
      9 C         140.9454  143.5147  164.8481 C.ar    1  UNL1        0.0035
     10 C         142.4212  143.3106  164.6740 C.ar    1  UNL1        0.0714
     11 C         143.2180  142.6400  165.7536 C.ar    1  UNL1        0.0035
     12 C         142.5390  142.1735  167.0071 C.ar    1  UNL1       -0.0043
     13 C         143.1003  143.7771  163.4205 C.3     1  UNL1        0.4186
     14 F         143.7794  144.2436  162.1671 F       1  UNL1       -0.1659
     15 F         142.0726  143.0593  162.5967 F       1  UNL1       -0.1659
     16 F         144.1280  144.4949  164.2444 F       1  UNL1       -0.1659
     17 N         140.3701  139.4023  166.4446 N.am    1  UNL1       -0.3004
     18 C         139.3506  139.6208  167.5229 C.2     1  UNL1        0.2240
     19 O         138.0847  138.8162  167.5324 O.2     1  UNL1       -0.2750
     20 H         141.2009  139.9304  166.4383 H       1  UNL1        0.1497
     21 C         140.1237  138.3791  165.3757 C.3     1  UNL1        0.1163
     22 C         137.5729  140.0074  160.1948 C.3     1  UNL1        0.0310
     23 C         138.2106  139.6003  161.4900 C.ar    1  UNL1       -0.0219
     24 C         138.2823  138.1504  161.8677 C.ar    1  UNL1       -0.0045
     25 C         138.9200  137.7434  163.1629 C.ar    1  UNL1       -0.0029
     26 C         139.4860  138.7862  164.0805 C.ar    1  UNL1       -0.0026
     27 C         139.4143  140.2361  163.7029 C.ar    1  UNL1       -0.0029
     28 C         138.7766  140.6431  162.4077 C.ar    1  UNL1       -0.0045
@<TRIPOS>BOND
     1    22    23    1
     2    23    24   ar
     3    24    25   ar
     4    25    26   ar
     5    26    21    1
     6    21    17    1
     7    17    18   am
     8    18    19    2
     9     1    18    1
    10     1     2    1
    11     2     3    1
    12     3     4    1
    13     4     5    1
    14     5     7    1
    15     7     8   ar
    16     8     9   ar
    17     9    10   ar
    18    10    13    1
    19    13    14    1
    20    13    15    1
    21    13    16    1
    22    10    11   ar
    23    11    12   ar
    24    26    27   ar
    25    27    28   ar
    26    28    23   ar
    27     5     1    1
    28    12     7   ar
    29    17    20    1
    30     3     6    1
