@<TRIPOS>MOLECULE
*****
 22 24 0 0 0
SMALL
GASTEIGER

@<TRIPOS>ATOM
      1 C         139.5696  141.1874  165.7313 C.ar    1  UNL1       -0.0158
      2 C         138.6676  140.1051  165.2166 C.ar    1  UNL1        0.0050
      3 S         137.8349  140.6827  164.1107 S.2     1  UNL1       -0.0915
      4 C         138.2223  142.1220  163.9419 C.ar    1  UNL1        0.0288
      5 C         137.7373  143.1888  163.0057 C.ar    1  UNL1        0.0065
      6 C         138.3244  144.5675  163.0710 C.ar    1  UNL1        0.0005
      7 C         139.3965  144.8794  164.0727 C.ar    1  UNL1        0.0000
      8 C         139.8815  143.8126  165.0089 C.ar    1  UNL1        0.0002
      9 C         139.2944  142.4339  164.9436 C.ar    1  UNL1        0.0025
     10 C         141.8599  140.3193  166.5980 C.3     1  UNL1        0.0095
     11 C         140.5710  141.0478  166.8393 C.3     1  UNL1        0.0463
     12 C         140.2836  141.6365  168.1886 C.ar    1  UNL1        0.0007
     13 C         140.6777  143.0524  168.4886 C.ar    1  UNL1       -0.0008
     14 C         140.3904  143.6412  169.8379 C.ar    1  UNL1        0.0204
     15 C         139.7089  142.8140  170.8874 C.ar    1  UNL1        0.0989
     16 N         139.3149  141.3982  170.5875 N.ar    1  UNL1       -0.2426
     17 C         139.6022  140.8094  169.2382 C.ar    1  UNL1        0.0949
     18 C         138.6086  138.6931  165.7194 C.3     1  UNL1        0.0499
     19 C         138.8510  137.5509  164.7778 C.3     1  UNL1        0.0774
     20 N         140.0345  137.5765  163.8566 N.3     1  UNL1       -0.2700
     21 C         139.8399  137.8395  162.3927 C.3     1  UNL1        0.0897
     22 C         141.4126  137.3391  164.3993 C.3     1  UNL1        0.0897
@<TRIPOS>BOND
     1    11    10    1
     2    11    12    1
     3    12    13   ar
     4    13    14   ar
     5    14    15   ar
     6    15    16   ar
     7    16    17   ar
     8    11     1    1
     9     1     2   ar
    10     2    18    1
    11    18    19    1
    12    19    20    1
    13    20    21    1
    14    20    22    1
    15     2     3   ar
    16     3     4   ar
    17     4     5   ar
    18     5     6   ar
    19     6     7   ar
    20     7     8   ar
    21     8     9   ar
    22    17    12   ar
    23     9     1   ar
    24     9     4   ar
@<TRIPOS>MOLECULE
*****
 22 24 0 0 0
SMALL
GASTEIGER

@<TRIPOS>ATOM
      1 C         139.8180  140.4253  165.5104 C.ar    1  UNL1       -0.0158
      2 C         138.9459  139.5693  164.6405 C.ar    1  UNL1        0.0050
      3 S         138.0056  140.4708  163.8969 S.2     1  UNL1       -0.0915
      4 C         138.2964  141.8840  164.3072 C.ar    1  UNL1        0.0288
      5 C         137.6860  143.1927  163.9017 C.ar    1  UNL1        0.0065
      6 C         138.1958  144.4733  164.4933 C.ar    1  UNL1        0.0005
      7 C         139.3160  144.4452  165.4906 C.ar    1  UNL1        0.0000
      8 C         139.9264  143.1364  165.8961 C.ar    1  UNL1        0.0002
      9 C         139.4166  141.8558  165.3044 C.ar    1  UNL1        0.0025
     10 C         142.1448  139.3218  165.8546 C.3     1  UNL1        0.0095
     11 C         140.9013  139.9365  166.4256 C.3     1  UNL1        0.0463
     12 C         140.7412  140.0624  167.9116 C.ar    1  UNL1        0.0007
     13 C         139.3725  140.2016  168.5094 C.ar    1  UNL1       -0.0008
     14 C         139.2123  140.3275  169.9955 C.ar    1  UNL1        0.0204
     15 C         140.4210  140.3143  170.8839 C.ar    1  UNL1        0.0989
     16 N         141.7896  140.1752  170.2861 N.ar    1  UNL1       -0.2426
     17 C         141.9498  140.0492  168.8000 C.ar    1  UNL1        0.0949
     18 C         139.0040  138.0742  164.5330 C.3     1  UNL1        0.0499
     19 C         138.9332  137.4157  163.1872 C.3     1  UNL1        0.0774
     20 N         139.9472  137.7509  162.1339 N.3     1  UNL1       -0.2700
     21 C         141.4113  137.6296  162.4367 C.3     1  UNL1        0.0897
     22 C         139.4971  138.2074  160.7778 C.3     1  UNL1        0.0897
@<TRIPOS>BOND
     1    11    10    1
     2    11    12    1
     3    12    13   ar
     4    13    14   ar
     5    14    15   ar
     6    15    16   ar
     7    16    17   ar
     8    11     1    1
     9     1     2   ar
    10     2    18    1
    11    18    19    1
    12    19    20    1
    13    20    21    1
    14    20    22    1
    15     2     3   ar
    16     3     4   ar
    17     4     5   ar
    18     5     6   ar
    19     6     7   ar
    20     7     8   ar
    21     8     9   ar
    22    17    12   ar
    23     9     1   ar
    24     9     4   ar
@<TRIPOS>MOLECULE
*****
 22 24 0 0 0
SMALL
GASTEIGER

@<TRIPOS>ATOM
      1 C         140.9420  141.9840  165.6791 C.ar    1  UNL1       -0.0158
      2 C         139.7575  142.1521  164.7743 C.ar    1  UNL1        0.0050
      3 S         140.1439  143.0976  163.6758 S.2     1  UNL1       -0.0915
      4 C         141.5672  143.5138  163.9017 C.ar    1  UNL1        0.0288
      5 C         142.4778  144.4306  163.1400 C.ar    1  UNL1        0.0065
      6 C         143.8816  144.6591  163.6164 C.ar    1  UNL1        0.0005
      7 C         144.3748  143.9709  164.8546 C.ar    1  UNL1        0.0000
      8 C         143.4642  143.0541  165.6163 C.ar    1  UNL1        0.0002
      9 C         142.0604  142.8256  165.1399 C.ar    1  UNL1        0.0025
     10 C         141.5294  139.7250  166.8202 C.3     1  UNL1        0.0095
     11 C         140.9981  141.1251  166.9076 C.3     1  UNL1        0.0463
     12 C         140.5232  141.6662  168.2234 C.ar    1  UNL1        0.0007
     13 C         140.8280  143.0845  168.6053 C.ar    1  UNL1       -0.0008
     14 C         140.3531  143.6257  169.9211 C.ar    1  UNL1        0.0204
     15 C         139.5732  142.7486  170.8553 C.ar    1  UNL1        0.0989
     16 N         139.2683  141.3304  170.4735 N.ar    1  UNL1       -0.2426
     17 C         139.7433  140.7892  169.1576 C.ar    1  UNL1        0.0949
     18 C         138.4212  141.4908  164.9390 C.3     1  UNL1        0.0499
     19 C         138.1700  140.1448  164.3266 C.3     1  UNL1        0.0774
     20 N         138.4323  138.8991  165.1200 N.3     1  UNL1       -0.2700
     21 C         139.1703  137.7529  164.4941 C.3     1  UNL1        0.0897
     22 C         137.9568  138.7996  166.5391 C.3     1  UNL1        0.0897
@<TRIPOS>BOND
     1    11    10    1
     2    11    12    1
     3    12    13   ar
     4    13    14   ar
     5    14    15   ar
     6    15    16   ar
     7    16    17   ar
     8    11     1    1
     9     1     2   ar
    10     2    18    1
    11    18    19    1
    12    19    20    1
    13    20    21    1
    14    20    22    1
    15     2     3   ar
    16     3     4   ar
    17     4     5   ar
    18     5     6   ar
    19     6     7   ar
    20     7     8   ar
    21     8     9   ar
    22    17    12   ar
    23     9     1   ar
    24     9     4   ar
@<TRIPOS>MOLECULE
*****
 22 24 0 0 0
SMALL
GASTEIGER

@<TRIPOS>ATOM
      1 C         141.5789  141.4334  165.2991 C.ar    1  UNL1       -0.0158
      2 C         141.1455  142.8537  165.0871 C.ar    1  UNL1        0.0050
      3 S         142.2746  143.5893  164.4283 S.2     1  UNL1       -0.0915
      4 C         143.4058  142.6236  164.2332 C.ar    1  UNL1        0.0288
      5 C         144.7718  142.7855  163.6350 C.ar    1  UNL1        0.0065
      6 C         145.7077  141.6149  163.5751 C.ar    1  UNL1        0.0005
      7 C         145.2777  140.2824  164.1133 C.ar    1  UNL1        0.0000
      8 C         143.9117  140.1206  164.7115 C.ar    1  UNL1        0.0002
      9 C         142.9758  141.2912  164.7714 C.ar    1  UNL1        0.0025
     10 C         139.8478  139.5082  165.0814 C.3     1  UNL1        0.0095
     11 C         140.7592  140.3461  165.9284 C.3     1  UNL1        0.0463
     12 C         140.8509  140.0966  167.4046 C.ar    1  UNL1        0.0007
     13 C         142.1736  139.7618  168.0280 C.ar    1  UNL1       -0.0008
     14 C         142.2654  139.5123  169.5042 C.ar    1  UNL1        0.0204
     15 C         141.0344  139.5976  170.3572 C.ar    1  UNL1        0.0989
     16 N         139.7118  139.9324  169.7339 N.ar    1  UNL1       -0.2426
     17 C         139.6200  140.1819  168.2576 C.ar    1  UNL1        0.0949
     18 C         139.8165  143.4361  165.4671 C.3     1  UNL1        0.0499
     19 C         139.3403  144.7029  164.8204 C.3     1  UNL1        0.0774
     20 N         138.8946  144.6923  163.3882 N.3     1  UNL1       -0.2700
     21 C         139.5965  145.5506  162.3778 C.3     1  UNL1        0.0897
     22 C         137.7470  143.8234  162.9662 C.3     1  UNL1        0.0897
@<TRIPOS>BOND
     1    11    10    1
     2    11    12    1
     3    12    13   ar
     4    13    14   ar
     5    14    15   ar
     6    15    16   ar
     7    16    17   ar
     8    11     1    1
     9     1     2   ar
    10     2    18    1
    11    18    19    1
    12    19    20    1
    13    20    21    1
    14    20    22    1
    15     2     3   ar
    16     3     4   ar
    17     4     5   ar
    18     5     6   ar
    19     6     7   ar
    20     7     8   ar
    21     8     9   ar
    22    17    12   ar
    23     9     1   ar
    24     9     4   ar
@<TRIPOS>MOLECULE
*****
 22 24 0 0 0
SMALL
GASTEIGER

@<TRIPOS>ATOM
      1 C         140.4122  141.1417  165.4629 C.ar    1  UNL1       -0.0158
      2 C         141.2653  140.7801  164.2833 C.ar    1  UNL1        0.0050
      3 S         140.9329  139.3726  163.8851 S.2     1  UNL1       -0.0915
      4 C         139.8745  138.8644  164.8186 C.ar    1  UNL1        0.0288
      5 C         139.1621  137.5473  164.9066 C.ar    1  UNL1        0.0065
      6 C         138.1280  137.3236  165.9698 C.ar    1  UNL1        0.0005
      7 C         137.8061  138.4170  166.9449 C.ar    1  UNL1        0.0000
      8 C         138.5185  139.7341  166.8569 C.ar    1  UNL1        0.0002
      9 C         139.5526  139.9578  165.7937 C.ar    1  UNL1        0.0025
     10 C         139.6456  143.6183  165.6333 C.3     1  UNL1        0.0095
     11 C         140.4177  142.4565  166.1849 C.3     1  UNL1        0.0463
     12 C         141.1952  142.6096  167.4584 C.ar    1  UNL1        0.0007
     13 C         140.5027  143.0604  168.7104 C.ar    1  UNL1       -0.0008
     14 C         141.2801  143.2135  169.9840 C.ar    1  UNL1        0.0204
     15 C         142.7501  142.9157  170.0057 C.ar    1  UNL1        0.0989
     16 N         143.4426  142.4649  168.7539 N.ar    1  UNL1       -0.2426
     17 C         142.6652  142.3118  167.4802 C.ar    1  UNL1        0.0949
     18 C         142.2736  141.6697  163.6186 C.3     1  UNL1        0.0499
     19 C         143.4342  141.0687  162.8825 C.3     1  UNL1        0.0774
     20 N         144.6954  140.7289  163.6200 N.3     1  UNL1       -0.2700
     21 C         144.8474  139.3835  164.2656 C.3     1  UNL1        0.0897
     22 C         145.8046  141.7345  163.7120 C.3     1  UNL1        0.0897
@<TRIPOS>BOND
     1    11    10    1
     2    11    12    1
     3    12    13   ar
     4    13    14   ar
     5    14    15   ar
     6    15    16   ar
     7    16    17   ar
     8    11     1    1
     9     1     2   ar
    10     2    18    1
    11    18    19    1
    12    19    20    1
    13    20    21    1
    14    20    22    1
    15     2     3   ar
    16     3     4   ar
    17     4     5   ar
    18     5     6   ar
    19     6     7   ar
    20     7     8   ar
    21     8     9   ar
    22    17    12   ar
    23     9     1   ar
    24     9     4   ar
@<TRIPOS>MOLECULE
*****
 22 24 0 0 0
SMALL
GASTEIGER

@<TRIPOS>ATOM
      1 C         141.1891  142.9449  165.4344 C.ar    1  UNL1       -0.0158
      2 C         140.3203  143.9989  164.8147 C.ar    1  UNL1        0.0050
      3 S         141.0435  144.5544  163.6237 S.2     1  UNL1       -0.0915
      4 C         142.3593  143.8438  163.5074 C.ar    1  UNL1        0.0288
      5 C         143.4872  143.9739  162.5271 C.ar    1  UNL1        0.0065
      6 C         144.7050  143.1093  162.6659 C.ar    1  UNL1        0.0005
      7 C         144.7950  142.1146  163.7850 C.ar    1  UNL1        0.0000
      8 C         143.6672  141.9844  164.7653 C.ar    1  UNL1        0.0002
      9 C         142.4493  142.8490  164.6265 C.ar    1  UNL1        0.0025
     10 C         139.8930  140.9848  166.5427 C.3     1  UNL1        0.0095
     11 C         140.8563  142.1298  166.6488 C.3     1  UNL1        0.0463
     12 C         141.4865  142.4597  167.9694 C.ar    1  UNL1        0.0007
     13 C         142.8986  142.0401  168.2522 C.ar    1  UNL1       -0.0008
     14 C         143.5289  142.3700  169.5728 C.ar    1  UNL1        0.0204
     15 C         142.7471  143.1195  170.6106 C.ar    1  UNL1        0.0989
     16 N         141.3350  143.5391  170.3278 N.ar    1  UNL1       -0.2426
     17 C         140.7047  143.2092  169.0072 C.ar    1  UNL1        0.0949
     18 C         138.9660  144.4230  165.3005 C.3     1  UNL1        0.0499
     19 C         137.7307  143.8275  164.6926 C.3     1  UNL1        0.0774
     20 N         137.8479  142.8540  163.5575 N.3     1  UNL1       -0.2700
     21 C         137.9769  143.3554  162.1496 C.3     1  UNL1        0.0897
     22 C         137.8362  141.3791  163.8302 C.3     1  UNL1        0.0897
@<TRIPOS>BOND
     1    11    10    1
     2    11    12    1
     3    12    13   ar
     4    13    14   ar
     5    14    15   ar
     6    15    16   ar
     7    16    17   ar
     8    11     1    1
     9     1     2   ar
    10     2    18    1
    11    18    19    1
    12    19    20    1
    13    20    21    1
    14    20    22    1
    15     2     3   ar
    16     3     4   ar
    17     4     5   ar
    18     5     6   ar
    19     6     7   ar
    20     7     8   ar
    21     8     9   ar
    22    17    12   ar
    23     9     1   ar
    24     9     4   ar
@<TRIPOS>MOLECULE
*****
 22 24 0 0 0
SMALL
GASTEIGER

@<TRIPOS>ATOM
      1 C         140.1327  140.0956  165.4722 C.ar    1  UNL1       -0.0158
      2 C         139.6274  140.6945  164.1931 C.ar    1  UNL1        0.0050
      3 S         140.7490  140.6745  163.1972 S.2     1  UNL1       -0.0915
      4 C         141.9474  140.0634  163.8608 C.ar    1  UNL1        0.0288
      5 C         143.3362  139.7865  163.3665 C.ar    1  UNL1        0.0065
      6 C         144.3441  139.1518  164.2781 C.ar    1  UNL1        0.0005
      7 C         143.9633  138.7940  165.6842 C.ar    1  UNL1        0.0000
      8 C         142.5744  139.0709  166.1785 C.ar    1  UNL1        0.0002
      9 C         141.5665  139.7056  165.2669 C.ar    1  UNL1        0.0025
     10 C         138.2594  138.8827  166.8025 C.3     1  UNL1        0.0095
     11 C         139.3429  139.9180  166.7349 C.3     1  UNL1        0.0463
     12 C         139.6364  140.7754  167.9301 C.ar    1  UNL1        0.0007
     13 C         140.3090  142.1045  167.7527 C.ar    1  UNL1       -0.0008
     14 C         140.6025  142.9620  168.9479 C.ar    1  UNL1        0.0204
     15 C         140.2234  142.4905  170.3205 C.ar    1  UNL1        0.0989
     16 N         139.5508  141.1616  170.4979 N.ar    1  UNL1       -0.2426
     17 C         139.2573  140.3041  169.3027 C.ar    1  UNL1        0.0949
     18 C         138.2436  141.2208  163.9521 C.3     1  UNL1        0.0499
     19 C         137.8032  142.4983  164.6031 C.3     1  UNL1        0.0774
     20 N         138.3785  143.8077  164.1508 N.3     1  UNL1       -0.2700
     21 C         138.9394  144.7682  165.1573 C.3     1  UNL1        0.0897
     22 C         138.3928  144.1567  162.6921 C.3     1  UNL1        0.0897
@<TRIPOS>BOND
     1    11    10    1
     2    11    12    1
     3    12    13   ar
     4    13    14   ar
     5    14    15   ar
     6    15    16   ar
     7    16    17   ar
     8    11     1    1
     9     1     2   ar
    10     2    18    1
    11    18    19    1
    12    19    20    1
    13    20    21    1
    14    20    22    1
    15     2     3   ar
    16     3     4   ar
    17     4     5   ar
    18     5     6   ar
    19     6     7   ar
    20     7     8   ar
    21     8     9   ar
    22    17    12   ar
    23     9     1   ar
    24     9     4   ar
@<TRIPOS>MOLECULE
*****
 22 24 0 0 0
SMALL
GASTEIGER

@<TRIPOS>ATOM
      1 C         140.5489  140.7673  165.4754 C.ar    1  UNL1       -0.0158
      2 C         139.7639  139.6643  164.8295 C.ar    1  UNL1        0.0050
      3 S         138.5010  140.2562  164.2774 S.2     1  UNL1       -0.0915
      4 C         138.5055  141.7249  164.5820 C.ar    1  UNL1        0.0288
      5 C         137.5207  142.8154  164.2808 C.ar    1  UNL1        0.0065
      6 C         137.8015  144.2219  164.7201 C.ar    1  UNL1        0.0005
      7 C         139.0672  144.5378  165.4605 C.ar    1  UNL1        0.0000
      8 C         140.0521  143.4473  165.7616 C.ar    1  UNL1        0.0002
      9 C         139.7712  142.0408  165.3224 C.ar    1  UNL1        0.0025
     10 C         141.9434  140.2019  167.5934 C.3     1  UNL1        0.0095
     11 C         141.8783  140.6223  166.1549 C.3     1  UNL1        0.0463
     12 C         143.1425  140.8977  165.3961 C.ar    1  UNL1        0.0007
     13 C         143.8731  139.7739  164.7228 C.ar    1  UNL1       -0.0008
     14 C         145.1374  140.0492  163.9640 C.ar    1  UNL1        0.0204
     15 C         145.6711  141.4484  163.8785 C.ar    1  UNL1        0.0989
     16 N         144.9406  142.5722  164.5518 N.ar    1  UNL1       -0.2426
     17 C         143.6763  142.2969  165.3106 C.ar    1  UNL1        0.0949
     18 C         140.1704  138.2227  164.7498 C.3     1  UNL1        0.0499
     19 C         139.7795  137.3979  163.5595 C.3     1  UNL1        0.0774
     20 N         140.3056  137.7478  162.1991 N.3     1  UNL1       -0.2700
     21 C         141.7843  137.7593  161.9470 C.3     1  UNL1        0.0897
     22 C         139.3532  138.0863  161.0908 C.3     1  UNL1        0.0897
@<TRIPOS>BOND
     1    11    10    1
     2    11    12    1
     3    12    13   ar
     4    13    14   ar
     5    14    15   ar
     6    15    16   ar
     7    16    17   ar
     8    11     1    1
     9     1     2   ar
    10     2    18    1
    11    18    19    1
    12    19    20    1
    13    20    21    1
    14    20    22    1
    15     2     3   ar
    16     3     4   ar
    17     4     5   ar
    18     5     6   ar
    19     6     7   ar
    20     7     8   ar
    21     8     9   ar
    22    17    12   ar
    23     9     1   ar
    24     9     4   ar
@<TRIPOS>MOLECULE
*****
 22 24 0 0 0
SMALL
GASTEIGER

@<TRIPOS>ATOM
      1 C         140.3407  140.3136  166.1922 C.ar    1  UNL1       -0.0158
      2 C         141.6654  140.3429  165.4892 C.ar    1  UNL1        0.0050
      3 S         142.7439  140.3180  166.5315 S.2     1  UNL1       -0.0915
      4 C         142.0857  140.2735  167.8786 C.ar    1  UNL1        0.0288
      5 C         142.6469  140.2350  169.2691 C.ar    1  UNL1        0.0065
      6 C         141.7229  140.1939  170.4499 C.ar    1  UNL1        0.0005
      7 C         140.2376  140.1912  170.2403 C.ar    1  UNL1        0.0000
      8 C         139.6764  140.2296  168.8498 C.ar    1  UNL1        0.0002
      9 C         140.6004  140.2708  167.6689 C.ar    1  UNL1        0.0025
     10 C         138.0671  139.1567  165.7000 C.3     1  UNL1        0.0095
     11 C         138.9929  140.3253  165.5341 C.3     1  UNL1        0.0463
     12 C         138.5707  141.5053  164.7101 C.ar    1  UNL1        0.0007
     13 C         138.9696  142.8907  165.1244 C.ar    1  UNL1       -0.0008
     14 C         138.5474  144.0709  164.3004 C.ar    1  UNL1        0.0204
     15 C         137.7263  143.8657  163.0620 C.ar    1  UNL1        0.0989
     16 N         137.3274  142.4803  162.6476 N.ar    1  UNL1       -0.2426
     17 C         137.7496  141.3002  163.4716 C.ar    1  UNL1        0.0949
     18 C         141.8749  140.3888  164.0046 C.3     1  UNL1        0.0499
     19 C         141.9908  139.1134  163.2237 C.3     1  UNL1        0.0774
     20 N         140.9314  138.0588  163.3483 N.3     1  UNL1       -0.2700
     21 C         139.7329  138.0894  162.4466 C.3     1  UNL1        0.0897
     22 C         141.0704  136.9737  164.3744 C.3     1  UNL1        0.0897
@<TRIPOS>BOND
     1    11    10    1
     2    11    12    1
     3    12    13   ar
     4    13    14   ar
     5    14    15   ar
     6    15    16   ar
     7    16    17   ar
     8    11     1    1
     9     1     2   ar
    10     2    18    1
    11    18    19    1
    12    19    20    1
    13    20    21    1
    14    20    22    1
    15     2     3   ar
    16     3     4   ar
    17     4     5   ar
    18     5     6   ar
    19     6     7   ar
    20     7     8   ar
    21     8     9   ar
    22    17    12   ar
    23     9     1   ar
    24     9     4   ar
