@<TRIPOS>MOLECULE
*****
 29 31 0 0 0
SMALL
GASTEIGER

@<TRIPOS>ATOM
      1 C         138.9213  140.8155  161.6277 C.ar    1  UNL1        0.1030
      2 C         137.6906  140.1662  161.0676 C.ar    1  UNL1        0.0414
      3 C         137.3932  138.7292  161.3782 C.ar    1  UNL1        0.1034
      4 N         138.3266  137.9414  162.2489 N.ar    1  UNL1       -0.2120
      5 C         139.5574  138.5907  162.8090 C.ar    1  UNL1        0.2207
      6 N         139.8547  140.0277  162.4984 N.ar    1  UNL1       -0.2120
      7 C         139.9477  145.9651  162.1837 C.3     1  UNL1        0.0718
      8 C         139.6904  144.6196  161.5726 C.ar    1  UNL1        0.1208
      9 N         139.6621  144.3083  160.1055 N.ar    1  UNL1       -0.2293
     10 C         139.3705  142.8454  159.9476 C.ar    1  UNL1        0.1188
     11 C         139.2187  142.2526  161.3171 C.ar    1  UNL1        0.0981
     12 N         139.4164  143.3490  162.3214 N.ar    1  UNL1       -0.3155
     13 C         139.3514  143.2010  163.8126 C.3     1  UNL1        0.0868
     14 C         140.6103  142.9931  164.6013 C.3     1  UNL1        0.0245
     15 C         138.0275  143.2609  164.5153 C.3     1  UNL1        0.0245
     16 N         140.4908  137.8029  163.6798 N.pl3   1  UNL1       -0.2825
     17 H         140.7324  136.8806  163.4343 H       1  UNL1        0.1551
     18 C         141.0560  138.4203  164.9244 C.ar    1  UNL1        0.0527
     19 C         142.5122  138.2598  165.2466 C.ar    1  UNL1        0.0150
     20 C         143.0775  138.8772  166.4913 C.ar    1  UNL1        0.0080
     21 C         142.1866  139.6551  167.4139 C.ar    1  UNL1        0.0811
     22 C         140.7304  139.8156  167.0918 C.ar    1  UNL1        0.1457
     23 F         139.8395  140.5935  168.0143 F       1  UNL1       -0.2040
     24 C         140.1651  139.1982  165.8470 C.ar    1  UNL1        0.0444
     25 C         142.7519  140.2725  168.6586 C.2     1  UNL1        0.2513
     26 O         142.8486  139.4650  169.9190 O.2     1  UNL1       -0.2698
     27 N         143.2204  141.6973  168.6429 N.am    1  UNL1       -0.2725
     28 C         143.7857  142.3147  169.8876 C.3     1  UNL1        0.1152
     29 C         143.1237  142.5048  167.3825 C.3     1  UNL1        0.1152
@<TRIPOS>BOND
     1     7     8    1
     2     8     9   ar
     3     9    10   ar
     4    10    11   ar
     5    11     1    1
     6     1     2   ar
     7     2     3   ar
     8     3     4   ar
     9     4     5   ar
    10     5    16    1
    11    16    18    1
    12    18    19   ar
    13    19    20   ar
    14    20    21   ar
    15    21    25    1
    16    25    26    2
    17    25    27   am
    18    27    28    1
    19    27    29    1
    20    21    22   ar
    21    22    23    1
    22    22    24   ar
    23     5     6   ar
    24    11    12   ar
    25    12    13    1
    26    13    14    1
    27    13    15    1
    28    12     8   ar
    29     6     1   ar
    30    24    18   ar
    31    16    17    1
@<TRIPOS>MOLECULE
*****
 29 31 0 0 0
SMALL
GASTEIGER

@<TRIPOS>ATOM
      1 C         142.0448  140.4293  161.8219 C.ar    1  UNL1        0.1030
      2 C         142.5604  139.5345  160.7341 C.ar    1  UNL1        0.0414
      3 C         142.2230  138.0730  160.7422 C.ar    1  UNL1        0.1034
      4 N         141.3700  137.5063  161.8382 N.ar    1  UNL1       -0.2120
      5 C         140.8544  138.4010  162.9261 C.ar    1  UNL1        0.2207
      6 N         141.1918  139.8626  162.9179 N.ar    1  UNL1       -0.2120
      7 C         143.9564  145.1498  163.2163 C.3     1  UNL1        0.0718
      8 C         143.2608  144.0606  162.4547 C.ar    1  UNL1        0.1208
      9 N         142.5418  144.2193  161.1478 N.ar    1  UNL1       -0.2293
     10 C         141.9988  142.8783  160.7518 C.ar    1  UNL1        0.1188
     11 C         142.3822  141.8909  161.8138 C.ar    1  UNL1        0.0981
     12 N         143.1622  142.6216  162.8663 N.ar    1  UNL1       -0.3155
     13 C         143.7418  142.0190  164.1117 C.3     1  UNL1        0.0868
     14 C         145.0127  141.2257  164.0398 C.3     1  UNL1        0.0245
     15 C         143.0503  142.2100  165.4291 C.3     1  UNL1        0.0245
     16 N         140.0014  137.8343  164.0221 N.pl3   1  UNL1       -0.2825
     17 H         139.4911  137.0062  163.8704 H       1  UNL1        0.1551
     18 C         139.9260  138.5293  165.3492 C.ar    1  UNL1        0.0527
     19 C         138.5943  138.7618  165.9994 C.ar    1  UNL1        0.0150
     20 C         138.5188  139.4568  167.3265 C.ar    1  UNL1        0.0080
     21 C         139.7750  139.9194  168.0035 C.ar    1  UNL1        0.0811
     22 C         141.1066  139.6869  167.3533 C.ar    1  UNL1        0.1457
     23 F         142.3627  140.1495  168.0302 F       1  UNL1       -0.2040
     24 C         141.1821  138.9919  166.0261 C.ar    1  UNL1        0.0444
     25 C         139.6994  140.6144  169.3306 C.2     1  UNL1        0.2513
     26 O         139.2910  139.8505  170.5551 O.2     1  UNL1       -0.2698
     27 N         140.0324  142.0734  169.4332 N.am    1  UNL1       -0.2725
     28 C         139.9568  142.7684  170.7603 C.3     1  UNL1        0.1152
     29 C         140.4408  142.8374  168.2087 C.3     1  UNL1        0.1152
@<TRIPOS>BOND
     1     7     8    1
     2     8     9   ar
     3     9    10   ar
     4    10    11   ar
     5    11     1    1
     6     1     2   ar
     7     2     3   ar
     8     3     4   ar
     9     4     5   ar
    10     5    16    1
    11    16    18    1
    12    18    19   ar
    13    19    20   ar
    14    20    21   ar
    15    21    25    1
    16    25    26    2
    17    25    27   am
    18    27    28    1
    19    27    29    1
    20    21    22   ar
    21    22    23    1
    22    22    24   ar
    23     5     6   ar
    24    11    12   ar
    25    12    13    1
    26    13    14    1
    27    13    15    1
    28    12     8   ar
    29     6     1   ar
    30    24    18   ar
    31    16    17    1
@<TRIPOS>MOLECULE
*****
 29 31 0 0 0
SMALL
GASTEIGER

@<TRIPOS>ATOM
      1 C         141.9532  141.4116  161.7650 C.ar    1  UNL1        0.1030
      2 C         143.2318  141.1055  161.0429 C.ar    1  UNL1        0.0414
      3 C         144.0367  139.8979  161.4223 C.ar    1  UNL1        0.1034
      4 N         143.5630  138.9966  162.5237 N.ar    1  UNL1       -0.2120
      5 C         142.2844  139.3027  163.2458 C.ar    1  UNL1        0.2207
      6 N         141.4795  140.5103  162.8664 N.ar    1  UNL1       -0.2120
      7 C         139.7489  146.2089  161.8559 C.3     1  UNL1        0.0718
      8 C         140.1351  144.8243  161.4274 C.ar    1  UNL1        0.1208
      9 N         139.6841  144.1306  160.1762 N.ar    1  UNL1       -0.2293
     10 C         140.3103  142.7678  160.1504 C.ar    1  UNL1        0.1188
     11 C         141.1483  142.6192  161.3856 C.ar    1  UNL1        0.0981
     12 N         141.0399  143.8902  162.1748 N.ar    1  UNL1       -0.3155
     13 C         141.7175  144.1768  163.4820 C.3     1  UNL1        0.0868
     14 C         142.9735  144.9962  163.5121 C.3     1  UNL1        0.0245
     15 C         141.1390  143.6439  164.7593 C.3     1  UNL1        0.0245
     16 N         141.8107  138.4014  164.3472 N.pl3   1  UNL1       -0.2825
     17 H         141.8047  137.4256  164.2164 H       1  UNL1        0.1551
     18 C         141.3463  138.9867  165.6478 C.ar    1  UNL1        0.0527
     19 C         139.8887  139.2653  165.8669 C.ar    1  UNL1        0.0150
     20 C         139.4242  139.8506  167.1675 C.ar    1  UNL1        0.0080
     21 C         140.4173  140.1573  168.2491 C.ar    1  UNL1        0.0811
     22 C         141.8748  139.8787  168.0301 C.ar    1  UNL1        0.1457
     23 F         142.8678  140.1853  169.1117 F       1  UNL1       -0.2040
     24 C         142.3393  139.2933  166.7294 C.ar    1  UNL1        0.0444
     25 C         139.9527  140.7426  169.5498 C.2     1  UNL1        0.2513
     26 O         139.4484  139.8434  170.6393 O.2     1  UNL1       -0.2698
     27 N         139.9926  142.2271  169.7609 N.am    1  UNL1       -0.2725
     28 C         139.5281  142.8124  171.0616 C.3     1  UNL1        0.1152
     29 C         140.4970  143.1264  168.6715 C.3     1  UNL1        0.1152
@<TRIPOS>BOND
     1     7     8    1
     2     8     9   ar
     3     9    10   ar
     4    10    11   ar
     5    11     1    1
     6     1     2   ar
     7     2     3   ar
     8     3     4   ar
     9     4     5   ar
    10     5    16    1
    11    16    18    1
    12    18    19   ar
    13    19    20   ar
    14    20    21   ar
    15    21    25    1
    16    25    26    2
    17    25    27   am
    18    27    28    1
    19    27    29    1
    20    21    22   ar
    21    22    23    1
    22    22    24   ar
    23     5     6   ar
    24    11    12   ar
    25    12    13    1
    26    13    14    1
    27    13    15    1
    28    12     8   ar
    29     6     1   ar
    30    24    18   ar
    31    16    17    1
@<TRIPOS>MOLECULE
*****
 29 31 0 0 0
SMALL
GASTEIGER

@<TRIPOS>ATOM
      1 C         138.8364  141.1383  161.4721 C.ar    1  UNL1        0.1030
      2 C         137.7417  140.4698  160.6945 C.ar    1  UNL1        0.0414
      3 C         137.3727  139.0465  160.9912 C.ar    1  UNL1        0.1034
      4 N         138.0983  138.2918  162.0653 N.ar    1  UNL1       -0.2120
      5 C         139.1931  138.9603  162.8429 C.ar    1  UNL1        0.2207
      6 N         139.5621  140.3836  162.5462 N.ar    1  UNL1       -0.2120
      7 C         139.9735  146.2601  162.0682 C.3     1  UNL1        0.0718
      8 C         139.7282  144.9159  161.4495 C.ar    1  UNL1        0.1208
      9 N         139.8188  144.5879  159.9885 N.ar    1  UNL1       -0.2293
     10 C         139.4958  143.1329  159.8192 C.ar    1  UNL1        0.1188
     11 C         139.2055  142.5617  161.1755 C.ar    1  UNL1        0.0981
     12 N         139.3492  143.6636  162.1830 N.ar    1  UNL1       -0.3155
     13 C         139.1489  143.5357  163.6640 C.3     1  UNL1        0.0868
     14 C         137.7651  143.5839  164.2408 C.3     1  UNL1        0.0245
     15 C         140.3326  143.3596  164.5684 C.3     1  UNL1        0.0245
     16 N         139.9187  138.2056  163.9170 N.pl3   1  UNL1       -0.2825
     17 H         140.3408  137.3403  163.7113 H       1  UNL1        0.1551
     18 C         140.0012  138.7692  165.3046 C.ar    1  UNL1        0.0527
     19 C         138.7511  138.9647  166.1103 C.ar    1  UNL1        0.0150
     20 C         138.8336  139.5284  167.4979 C.ar    1  UNL1        0.0080
     21 C         140.1662  139.8965  168.0799 C.ar    1  UNL1        0.0811
     22 C         141.4163  139.7010  167.2743 C.ar    1  UNL1        0.1457
     23 F         142.7489  140.0691  167.8562 F       1  UNL1       -0.2040
     24 C         141.3338  139.1373  165.8866 C.ar    1  UNL1        0.0444
     25 C         140.2487  140.4602  169.4676 C.2     1  UNL1        0.2513
     26 O         140.1673  139.5463  170.6543 O.2     1  UNL1       -0.2698
     27 N         140.4126  141.9375  169.6685 N.am    1  UNL1       -0.2725
     28 C         140.4951  142.5011  171.0561 C.3     1  UNL1        0.1152
     29 C         140.4940  142.8514  168.4817 C.3     1  UNL1        0.1152
@<TRIPOS>BOND
     1     7     8    1
     2     8     9   ar
     3     9    10   ar
     4    10    11   ar
     5    11     1    1
     6     1     2   ar
     7     2     3   ar
     8     3     4   ar
     9     4     5   ar
    10     5    16    1
    11    16    18    1
    12    18    19   ar
    13    19    20   ar
    14    20    21   ar
    15    21    25    1
    16    25    26    2
    17    25    27   am
    18    27    28    1
    19    27    29    1
    20    21    22   ar
    21    22    23    1
    22    22    24   ar
    23     5     6   ar
    24    11    12   ar
    25    12    13    1
    26    13    14    1
    27    13    15    1
    28    12     8   ar
    29     6     1   ar
    30    24    18   ar
    31    16    17    1
@<TRIPOS>MOLECULE
*****
 29 31 0 0 0
SMALL
GASTEIGER

@<TRIPOS>ATOM
      1 C         139.2062  141.0198  161.6431 C.ar    1  UNL1        0.1030
      2 C         139.0062  140.4451  160.2721 C.ar    1  UNL1        0.0414
      3 C         139.2229  138.9800  160.0342 C.ar    1  UNL1        0.1034
      4 N         139.6395  138.0897  161.1673 N.ar    1  UNL1       -0.2120
      5 C         139.8395  138.6645  162.5383 C.ar    1  UNL1        0.2207
      6 N         139.6228  140.1296  162.7762 N.ar    1  UNL1       -0.2120
      7 C         139.9836  146.2369  161.8860 C.3     1  UNL1        0.0718
      8 C         139.3468  144.8830  161.9927 C.ar    1  UNL1        0.1208
      9 N         137.9653  144.5960  162.5017 N.ar    1  UNL1       -0.2293
     10 C         137.7445  143.1139  162.4327 C.ar    1  UNL1        0.1188
     11 C         138.9895  142.4850  161.8810 C.ar    1  UNL1        0.0981
     12 N         139.9798  143.5783  161.6091 N.ar    1  UNL1       -0.3155
     13 C         141.3606  143.3985  161.0515 C.3     1  UNL1        0.0868
     14 C         142.4944  143.0276  161.9608 C.3     1  UNL1        0.0245
     15 C         141.6077  143.5898  159.5843 C.3     1  UNL1        0.0245
     16 N         140.2562  137.7743  163.6713 N.pl3   1  UNL1       -0.2825
     17 H         140.1281  136.8004  163.6049 H       1  UNL1        0.1551
     18 C         140.8679  138.3678  164.9056 C.ar    1  UNL1        0.0527
     19 C         142.3373  138.2119  165.1637 C.ar    1  UNL1        0.0150
     20 C         142.9491  138.8054  166.3980 C.ar    1  UNL1        0.0080
     21 C         142.0915  139.5548  167.3742 C.ar    1  UNL1        0.0811
     22 C         140.6221  139.7107  167.1161 C.ar    1  UNL1        0.1457
     23 F         139.7645  140.4602  168.0922 F       1  UNL1       -0.2040
     24 C         140.0103  139.1172  165.8818 C.ar    1  UNL1        0.0444
     25 C         142.7033  140.1484  168.6085 C.2     1  UNL1        0.2513
     26 O         142.8819  139.3058  169.8366 O.2     1  UNL1       -0.2698
     27 N         143.1365  141.5844  168.6147 N.am    1  UNL1       -0.2725
     28 C         143.7483  142.1779  169.8490 C.3     1  UNL1        0.1152
     29 C         142.9579  142.4270  167.3866 C.3     1  UNL1        0.1152
@<TRIPOS>BOND
     1     7     8    1
     2     8     9   ar
     3     9    10   ar
     4    10    11   ar
     5    11     1    1
     6     1     2   ar
     7     2     3   ar
     8     3     4   ar
     9     4     5   ar
    10     5    16    1
    11    16    18    1
    12    18    19   ar
    13    19    20   ar
    14    20    21   ar
    15    21    25    1
    16    25    26    2
    17    25    27   am
    18    27    28    1
    19    27    29    1
    20    21    22   ar
    21    22    23    1
    22    22    24   ar
    23     5     6   ar
    24    11    12   ar
    25    12    13    1
    26    13    14    1
    27    13    15    1
    28    12     8   ar
    29     6     1   ar
    30    24    18   ar
    31    16    17    1
@<TRIPOS>MOLECULE
*****
 29 31 0 0 0
SMALL
GASTEIGER

@<TRIPOS>ATOM
      1 C         142.0127  141.2938  161.3017 C.ar    1  UNL1        0.1030
      2 C         143.1081  140.9741  160.3282 C.ar    1  UNL1        0.0414
      3 C         143.9420  139.7415  160.5158 C.ar    1  UNL1        0.1034
      4 N         143.6805  138.8286  161.6769 N.ar    1  UNL1       -0.2120
      5 C         142.5851  139.1482  162.6504 C.ar    1  UNL1        0.2207
      6 N         141.7512  140.3808  162.4628 N.ar    1  UNL1       -0.2120
      7 C         139.9498  146.1095  161.9605 C.3     1  UNL1        0.0718
      8 C         140.2305  144.7399  161.4170 C.ar    1  UNL1        0.1208
      9 N         139.5601  144.1064  160.2340 N.ar    1  UNL1       -0.2293
     10 C         140.1462  142.7384  160.0469 C.ar    1  UNL1        0.1188
     11 C         141.1787  142.5264  161.1142 C.ar    1  UNL1        0.0981
     12 N         141.2308  143.7635  161.9609 N.ar    1  UNL1       -0.3155
     13 C         142.1260  143.9851  163.1439 C.3     1  UNL1        0.0868
     14 C         141.7353  143.4522  164.4904 C.3     1  UNL1        0.0245
     15 C         143.4120  144.7399  162.9802 C.3     1  UNL1        0.0245
     16 N         142.3236  138.2353  163.8115 N.pl3   1  UNL1       -0.2825
     17 H         142.4540  137.2644  163.7135 H       1  UNL1        0.1551
     18 C         141.8635  138.8016  165.1221 C.ar    1  UNL1        0.0527
     19 C         142.8697  139.2258  166.1505 C.ar    1  UNL1        0.0150
     20 C         142.4096  139.7921  167.4611 C.ar    1  UNL1        0.0080
     21 C         140.9432  139.9343  167.7432 C.ar    1  UNL1        0.0811
     22 C         139.9370  139.5102  166.7148 C.ar    1  UNL1        0.1457
     23 F         138.4707  139.6524  166.9970 F       1  UNL1       -0.2040
     24 C         140.3971  138.9438  165.4042 C.ar    1  UNL1        0.0444
     25 C         140.4831  140.5006  169.0538 C.2     1  UNL1        0.2513
     26 O         140.2312  139.5887  170.2178 O.2     1  UNL1       -0.2698
     27 N         140.2749  141.9788  169.2004 N.am    1  UNL1       -0.2725
     28 C         139.8149  142.5451  170.5109 C.3     1  UNL1        0.1152
     29 C         140.5268  142.8908  168.0364 C.3     1  UNL1        0.1152
@<TRIPOS>BOND
     1     7     8    1
     2     8     9   ar
     3     9    10   ar
     4    10    11   ar
     5    11     1    1
     6     1     2   ar
     7     2     3   ar
     8     3     4   ar
     9     4     5   ar
    10     5    16    1
    11    16    18    1
    12    18    19   ar
    13    19    20   ar
    14    20    21   ar
    15    21    25    1
    16    25    26    2
    17    25    27   am
    18    27    28    1
    19    27    29    1
    20    21    22   ar
    21    22    23    1
    22    22    24   ar
    23     5     6   ar
    24    11    12   ar
    25    12    13    1
    26    13    14    1
    27    13    15    1
    28    12     8   ar
    29     6     1   ar
    30    24    18   ar
    31    16    17    1
@<TRIPOS>MOLECULE
*****
 29 31 0 0 0
SMALL
GASTEIGER

@<TRIPOS>ATOM
      1 C         141.3358  141.0227  161.2450 C.ar    1  UNL1        0.1030
      2 C         140.9848  140.2008  160.0403 C.ar    1  UNL1        0.0414
      3 C         141.0087  138.7033  160.1212 C.ar    1  UNL1        0.1034
      4 N         141.3837  138.0275  161.4068 N.ar    1  UNL1       -0.2120
      5 C         141.7347  138.8493  162.6115 C.ar    1  UNL1        0.2207
      6 N         141.7108  140.3469  162.5306 N.ar    1  UNL1       -0.2120
      7 C         139.9916  146.0721  162.0053 C.3     1  UNL1        0.0718
      8 C         140.6941  144.8413  161.5136 C.ar    1  UNL1        0.1208
      9 N         141.8562  144.8087  160.5657 N.ar    1  UNL1       -0.2293
     10 C         142.2381  143.3742  160.3498 C.ar    1  UNL1        0.1188
     11 C         141.3119  142.5204  161.1641 C.ar    1  UNL1        0.0981
     12 N         140.3577  143.4271  161.8834 N.ar    1  UNL1       -0.3155
     13 C         139.2598  142.9954  162.8098 C.3     1  UNL1        0.0868
     14 C         139.5532  142.7584  164.2616 C.3     1  UNL1        0.0245
     15 C         137.8683  142.8006  162.2843 C.3     1  UNL1        0.0245
     16 N         142.1096  138.1736  163.8971 N.pl3   1  UNL1       -0.2825
     17 H         142.6397  137.3441  163.8809 H       1  UNL1        0.1551
     18 C         141.6769  138.7615  165.2075 C.ar    1  UNL1        0.0527
     19 C         142.7043  139.2014  166.2080 C.ar    1  UNL1        0.0150
     20 C         142.2716  139.7894  167.5183 C.ar    1  UNL1        0.0080
     21 C         140.8115  139.9375  167.8282 C.ar    1  UNL1        0.0811
     22 C         139.7840  139.4976  166.8278 C.ar    1  UNL1        0.1457
     23 F         138.3239  139.6458  167.1377 F       1  UNL1       -0.2040
     24 C         140.2167  138.9097  165.5174 C.ar    1  UNL1        0.0444
     25 C         140.3788  140.5255  169.1386 C.2     1  UNL1        0.2513
     26 O         140.0786  139.6266  170.3014 O.2     1  UNL1       -0.2698
     27 N         140.2462  142.0123  169.2862 N.am    1  UNL1       -0.2725
     28 C         139.8135  142.6002  170.5966 C.3     1  UNL1        0.1152
     29 C         140.5463  142.9111  168.1235 C.3     1  UNL1        0.1152
@<TRIPOS>BOND
     1     7     8    1
     2     8     9   ar
     3     9    10   ar
     4    10    11   ar
     5    11     1    1
     6     1     2   ar
     7     2     3   ar
     8     3     4   ar
     9     4     5   ar
    10     5    16    1
    11    16    18    1
    12    18    19   ar
    13    19    20   ar
    14    20    21   ar
    15    21    25    1
    16    25    26    2
    17    25    27   am
    18    27    28    1
    19    27    29    1
    20    21    22   ar
    21    22    23    1
    22    22    24   ar
    23     5     6   ar
    24    11    12   ar
    25    12    13    1
    26    13    14    1
    27    13    15    1
    28    12     8   ar
    29     6     1   ar
    30    24    18   ar
    31    16    17    1
@<TRIPOS>MOLECULE
*****
 29 31 0 0 0
SMALL
GASTEIGER

@<TRIPOS>ATOM
      1 C         142.3480  142.4452  161.5610 C.ar    1  UNL1        0.1030
      2 C         143.3765  143.0052  160.6237 C.ar    1  UNL1        0.0414
      3 C         144.7898  142.5054  160.6759 C.ar    1  UNL1        0.1034
      4 N         145.1746  141.4457  161.6654 N.ar    1  UNL1       -0.2120
      5 C         144.1460  140.8858  162.6026 C.ar    1  UNL1        0.2207
      6 N         142.7327  141.3855  162.5504 N.ar    1  UNL1       -0.2120
      7 C         137.5179  144.0099  163.0113 C.3     1  UNL1        0.0718
      8 C         138.7144  143.6641  162.1754 C.ar    1  UNL1        0.1208
      9 N         138.8049  143.7638  160.6814 N.ar    1  UNL1       -0.2293
     10 C         140.1770  143.3194  160.2694 C.ar    1  UNL1        0.1188
     11 C         140.9346  142.9450  161.5088 C.ar    1  UNL1        0.0981
     12 N         140.0307  143.1581  162.6867 N.ar    1  UNL1       -0.3155
     13 C         140.3814  142.9089  164.1237 C.3     1  UNL1        0.0868
     14 C         141.1882  143.9185  164.8848 C.3     1  UNL1        0.0245
     15 C         139.9251  141.6498  164.7995 C.3     1  UNL1        0.0245
     16 N         144.5307  139.8261  163.5921 N.pl3   1  UNL1       -0.2825
     17 H         145.1617  139.1163  163.3328 H       1  UNL1        0.1551
     18 C         143.9540  139.8478  164.9766 C.ar    1  UNL1        0.0527
     19 C         143.7700  138.5654  165.7327 C.ar    1  UNL1        0.0150
     20 C         143.1933  138.5871  167.1172 C.ar    1  UNL1        0.0080
     21 C         142.8006  139.8912  167.7457 C.ar    1  UNL1        0.0811
     22 C         142.9846  141.1736  166.9897 C.ar    1  UNL1        0.1457
     23 F         142.5919  142.4777  167.6182 F       1  UNL1       -0.2040
     24 C         143.5613  141.1519  165.6051 C.ar    1  UNL1        0.0444
     25 C         142.2239  139.9129  169.1303 C.2     1  UNL1        0.2513
     26 O         143.1334  139.8692  170.3223 O.2     1  UNL1       -0.2698
     27 N         140.7378  139.9783  169.3228 N.am    1  UNL1       -0.2725
     28 C         140.1611  140.0000  170.7073 C.3     1  UNL1        0.1152
     29 C         139.8283  140.0220  168.1308 C.3     1  UNL1        0.1152
@<TRIPOS>BOND
     1     7     8    1
     2     8     9   ar
     3     9    10   ar
     4    10    11   ar
     5    11     1    1
     6     1     2   ar
     7     2     3   ar
     8     3     4   ar
     9     4     5   ar
    10     5    16    1
    11    16    18    1
    12    18    19   ar
    13    19    20   ar
    14    20    21   ar
    15    21    25    1
    16    25    26    2
    17    25    27   am
    18    27    28    1
    19    27    29    1
    20    21    22   ar
    21    22    23    1
    22    22    24   ar
    23     5     6   ar
    24    11    12   ar
    25    12    13    1
    26    13    14    1
    27    13    15    1
    28    12     8   ar
    29     6     1   ar
    30    24    18   ar
    31    16    17    1
@<TRIPOS>MOLECULE
*****
 29 31 0 0 0
SMALL
GASTEIGER

@<TRIPOS>ATOM
      1 C         140.4445  142.5065  165.9567 C.ar    1  UNL1        0.1030
      2 C         139.5128  143.6415  165.6510 C.ar    1  UNL1        0.0414
      3 C         139.8805  144.6531  164.6062 C.ar    1  UNL1        0.1034
      4 N         141.1799  144.5295  163.8671 N.ar    1  UNL1       -0.2120
      5 C         142.1116  143.3944  164.1728 C.ar    1  UNL1        0.2207
      6 N         141.7440  142.3829  165.2176 N.ar    1  UNL1       -0.2120
      7 C         139.9863  140.0068  170.5852 C.3     1  UNL1        0.0718
      8 C         139.8662  140.3459  169.1289 C.ar    1  UNL1        0.1208
      9 N         139.1559  139.5304  168.0894 N.ar    1  UNL1       -0.2293
     10 C         139.2861  140.2405  166.7746 C.ar    1  UNL1        0.1188
     11 C         140.0769  141.4949  167.0015 C.ar    1  UNL1        0.0981
     12 N         140.4354  141.5600  168.4565 N.ar    1  UNL1       -0.3155
     13 C         141.2245  142.6481  169.1223 C.3     1  UNL1        0.0868
     14 C         140.5168  143.8175  169.7398 C.3     1  UNL1        0.0245
     15 C         142.7216  142.5666  169.1706 C.3     1  UNL1        0.0245
     16 N         143.4110  143.2709  163.4337 N.pl3   1  UNL1       -0.2825
     17 H         144.2165  143.7222  163.7754 H       1  UNL1        0.1551
     18 C         143.4832  142.4598  162.1740 C.ar    1  UNL1        0.0527
     19 C         143.0866  143.0726  160.8636 C.ar    1  UNL1        0.0150
     20 C         143.1588  142.2615  159.6039 C.ar    1  UNL1        0.0080
     21 C         143.6275  140.8375  159.6546 C.ar    1  UNL1        0.0811
     22 C         144.0241  140.2247  160.9649 C.ar    1  UNL1        0.1457
     23 F         144.4928  138.8007  161.0156 F       1  UNL1       -0.2040
     24 C         143.9519  141.0358  162.2247 C.ar    1  UNL1        0.0444
     25 C         143.6997  140.0264  158.3948 C.2     1  UNL1        0.2513
     26 O         144.8504  140.2090  157.4501 O.2     1  UNL1       -0.2698
     27 N         142.6211  139.0328  158.0797 N.am    1  UNL1       -0.2725
     28 C         142.6932  138.2217  156.8200 C.3     1  UNL1        0.1152
     29 C         141.4703  138.8502  159.0244 C.3     1  UNL1        0.1152
@<TRIPOS>BOND
     1     7     8    1
     2     8     9   ar
     3     9    10   ar
     4    10    11   ar
     5    11     1    1
     6     1     2   ar
     7     2     3   ar
     8     3     4   ar
     9     4     5   ar
    10     5    16    1
    11    16    18    1
    12    18    19   ar
    13    19    20   ar
    14    20    21   ar
    15    21    25    1
    16    25    26    2
    17    25    27   am
    18    27    28    1
    19    27    29    1
    20    21    22   ar
    21    22    23    1
    22    22    24   ar
    23     5     6   ar
    24    11    12   ar
    25    12    13    1
    26    13    14    1
    27    13    15    1
    28    12     8   ar
    29     6     1   ar
    30    24    18   ar
    31    16    17    1
