@<TRIPOS>MOLECULE
*****
 38 41 0 0 0
SMALL
GASTEIGER

@<TRIPOS>ATOM
      1 C         139.1061  140.1443  161.5296 C.3     1  UNL1        0.0758
      2 C         139.0010  138.8489  160.7807 C.3     1  UNL1        0.0370
      3 C         139.7952  138.6419  159.5252 C.3     1  UNL1        0.0741
      4 N         140.6945  139.7302  159.0186 N.3     1  UNL1       -0.2688
      5 C         140.7997  141.0256  159.7674 C.3     1  UNL1        0.0741
      6 C         140.0055  141.2326  161.0230 C.3     1  UNL1        0.0370
      7 O         139.8404  138.6598  164.0310 O.2     1  UNL1       -0.2528
      8 C         138.6791  139.6092  164.0358 C.2     1  UNL1        0.3010
      9 N         138.3119  140.3514  162.7852 N.am    1  UNL1       -0.2905
     10 N         137.8849  139.8163  165.2914 N.am    1  UNL1       -0.2844
     11 H         137.5497  140.9745  162.7883 H       1  UNL1        0.1509
     12 H         137.1226  140.4393  165.2946 H       1  UNL1        0.1513
     13 CA        138.2520  139.0740  166.5421 C.3     1  UNL1        0.1248
     14 C         139.1884  139.6955  167.5355 C.ar    1  UNL1       -0.0020
     15 C         138.7393  139.9241  168.9484 C.ar    1  UNL1       -0.0026
     16 C         139.6757  140.5456  169.9417 C.ar    1  UNL1       -0.0003
     17 C         141.0613  140.9386  169.5223 C.ar    1  UNL1       -0.0000
     18 C         141.5104  140.7100  168.1095 C.ar    1  UNL1       -0.0003
     19 C         140.5739  140.0885  167.1160 C.ar    1  UNL1       -0.0026
     20 C         137.6827  137.7103  166.7994 C.3     1  UNL1        0.1612
     21 O         136.5146  137.5479  167.7262 O.3     1  UNL1       -0.3799
     22 H         136.7820  137.7850  168.6280 H       1  UNL1        0.2105
     23 C         141.4888  139.5231  157.7630 C.3     1  UNL1        0.1007
     24 C         141.4406  138.2019  157.0544 C.ar    1  UNL1        0.0129
     25 C         140.4068  137.7746  156.0552 C.ar    1  UNL1        0.0176
     26 C         140.7451  136.3846  155.6039 C.ar    1  UNL1        0.0799
     27 N         141.9880  135.9530  156.3242 N.ar    1  UNL1       -0.3038
     28 C         142.4179  137.0761  157.2207 C.ar    1  UNL1        0.0772
     29 C         142.6796  134.6304  156.1744 C.ar    1  UNL1        0.0640
     30 C         142.4269  133.7851  154.9614 C.ar    1  UNL1        0.0175
     31 C         143.1185  132.4625  154.8116 C.ar    1  UNL1        0.0053
     32 C         144.0628  131.9853  155.8747 C.ar    1  UNL1        0.0715
     33 C         144.3156  132.8306  157.0878 C.ar    1  UNL1        0.0053
     34 C         143.6240  134.1531  157.2376 C.ar    1  UNL1        0.0175
     35 C         144.7544  130.6627  155.7249 C.3     1  UNL1        0.4186
     36 F         145.4461  129.3401  155.5751 F       1  UNL1       -0.1659
     37 F         144.4078  130.6468  154.2656 F       1  UNL1       -0.1659
     38 F         145.1011  130.6786  157.1843 F       1  UNL1       -0.1659
@<TRIPOS>BOND
     1     7     8    2
     2     8     9   am
     3     9     1    1
     4     1     2    1
     5     2     3    1
     6     3     4    1
     7     4    23    1
     8    23    24    1
     9    24    25   ar
    10    25    26   ar
    11    26    27   ar
    12    27    29    1
    13    29    30   ar
    14    30    31   ar
    15    31    32   ar
    16    32    35    1
    17    35    36    1
    18    35    37    1
    19    35    38    1
    20    32    33   ar
    21    33    34   ar
    22    27    28   ar
    23     4     5    1
    24     5     6    1
    25     8    10   am
    26    10    13    1
    27    13    20    1
    28    20    21    1
    29    13    14    1
    30    14    15   ar
    31    15    16   ar
    32    16    17   ar
    33    17    18   ar
    34    18    19   ar
    35     6     1    1
    36    19    14   ar
    37    28    24   ar
    38    34    29   ar
    39     9    11    1
    40    10    12    1
    41    21    22    1
@<TRIPOS>MOLECULE
*****
 38 41 0 0 0
SMALL
GASTEIGER

@<TRIPOS>ATOM
      1 C         138.6334  142.6614  157.9801 C.3     1  UNL1        0.0758
      2 C         138.5307  142.5322  159.4710 C.3     1  UNL1        0.0370
      3 C         139.7741  142.4030  160.3000 C.3     1  UNL1        0.0741
      4 N         141.1202  142.4031  159.6380 N.3     1  UNL1       -0.2688
      5 C         141.2228  142.5323  158.1472 C.3     1  UNL1        0.0741
      6 C         139.9794  142.6615  157.3182 C.3     1  UNL1        0.0370
      7 O         137.1469  140.2042  157.1125 O.2     1  UNL1       -0.2528
      8 C         136.6467  141.5620  156.7173 C.2     1  UNL1        0.3010
      9 N         137.3899  142.7906  157.1511 N.am    1  UNL1       -0.2905
     10 N         135.4033  141.6912  155.8883 N.am    1  UNL1       -0.2844
     11 H         137.0616  143.6817  156.8917 H       1  UNL1        0.1509
     12 H         135.0750  142.5823  155.6289 H       1  UNL1        0.1513
     13 CA        134.6601  140.4626  155.4545 C.3     1  UNL1        0.1248
     14 C         133.3218  140.1453  156.0528 C.ar    1  UNL1       -0.0020
     15 C         133.1836  139.0077  157.0208 C.ar    1  UNL1       -0.0026
     16 C         131.8452  138.6904  157.6191 C.ar    1  UNL1       -0.0003
     17 C         130.6450  139.5106  157.2496 C.ar    1  UNL1       -0.0000
     18 C         130.7831  140.6482  156.2817 C.ar    1  UNL1       -0.0003
     19 C         132.1215  140.9656  155.6833 C.ar    1  UNL1       -0.0026
     20 C         135.2553  139.5513  154.4224 C.3     1  UNL1        0.1612
     21 O         136.0969  138.3848  154.8476 O.3     1  UNL1       -0.3799
     22 H         136.9097  138.7082  155.2667 H       1  UNL1        0.2105
     23 C         142.3636  142.2739  160.4671 C.3     1  UNL1        0.1007
     24 C         142.4090  142.8595  161.8473 C.ar    1  UNL1        0.0129
     25 C         142.7873  144.2687  162.1951 C.ar    1  UNL1        0.0176
     26 C         142.6961  144.4189  163.6848 C.ar    1  UNL1        0.0799
     27 N         142.2616  143.1024  164.2577 N.ar    1  UNL1       -0.3038
     28 C         142.0841  142.1387  163.1220 C.ar    1  UNL1        0.0772
     29 C         142.0428  142.8024  165.7110 C.ar    1  UNL1        0.0640
     30 C         143.2060  142.4373  166.5848 C.ar    1  UNL1        0.0175
     31 C         142.9873  142.1373  168.0381 C.ar    1  UNL1        0.0053
     32 C         141.6054  142.2024  168.6176 C.ar    1  UNL1        0.0715
     33 C         140.4421  142.5675  167.7438 C.ar    1  UNL1        0.0053
     34 C         140.6608  142.8675  166.2905 C.ar    1  UNL1        0.0175
     35 C         141.3867  141.9024  170.0709 C.3     1  UNL1        0.4186
     36 F         141.1679  141.6024  171.5242 F       1  UNL1       -0.1659
     37 F         142.8297  141.5168  170.2085 F       1  UNL1       -0.1659
     38 F         139.9436  142.2880  169.9334 F       1  UNL1       -0.1659
@<TRIPOS>BOND
     1     7     8    2
     2     8     9   am
     3     9     1    1
     4     1     2    1
     5     2     3    1
     6     3     4    1
     7     4    23    1
     8    23    24    1
     9    24    25   ar
    10    25    26   ar
    11    26    27   ar
    12    27    29    1
    13    29    30   ar
    14    30    31   ar
    15    31    32   ar
    16    32    35    1
    17    35    36    1
    18    35    37    1
    19    35    38    1
    20    32    33   ar
    21    33    34   ar
    22    27    28   ar
    23     4     5    1
    24     5     6    1
    25     8    10   am
    26    10    13    1
    27    13    20    1
    28    20    21    1
    29    13    14    1
    30    14    15   ar
    31    15    16   ar
    32    16    17   ar
    33    17    18   ar
    34    18    19   ar
    35     6     1    1
    36    19    14   ar
    37    28    24   ar
    38    34    29   ar
    39     9    11    1
    40    10    12    1
    41    21    22    1
@<TRIPOS>MOLECULE
*****
 38 41 0 0 0
SMALL
GASTEIGER

@<TRIPOS>ATOM
      1 C         141.9314  138.7384  158.4330 C.3     1  UNL1        0.0758
      2 C         142.9210  138.4128  159.5122 C.3     1  UNL1        0.0370
      3 C         143.6417  139.5173  160.2269 C.3     1  UNL1        0.0741
      4 N         143.3727  140.9473  159.8624 N.3     1  UNL1       -0.2688
      5 C         142.3831  141.2728  158.7832 C.3     1  UNL1        0.0741
      6 C         141.6625  140.1683  158.0686 C.3     1  UNL1        0.0370
      7 O         143.3259  137.1858  156.2778 O.2     1  UNL1       -0.2528
      8 C         141.9080  136.8576  156.6407 C.2     1  UNL1        0.3010
      9 N         141.2107  137.6339  157.7183 N.am    1  UNL1       -0.2905
     10 N         141.1872  135.7531  155.9260 N.am    1  UNL1       -0.2844
     11 H         140.2800  137.4185  157.9565 H       1  UNL1        0.1509
     12 H         140.2566  135.5378  156.1642 H       1  UNL1        0.1513
     13 CA        141.8845  134.9769  154.8484 C.3     1  UNL1        0.1248
     14 C         142.4491  133.6198  155.1475 C.ar    1  UNL1       -0.0020
     15 C         142.7548  132.6710  154.0266 C.ar    1  UNL1       -0.0026
     16 C         143.3194  131.3139  154.3256 C.ar    1  UNL1       -0.0003
     17 C         143.5785  130.9056  155.7455 C.ar    1  UNL1       -0.0000
     18 C         143.2728  131.8543  156.8664 C.ar    1  UNL1       -0.0003
     19 C         142.7082  133.2115  156.5674 C.ar    1  UNL1       -0.0026
     20 C         142.0171  135.5577  153.4718 C.3     1  UNL1        0.1612
     21 O         142.6359  136.9113  153.2853 O.3     1  UNL1       -0.3799
     22 H         142.0686  137.5849  153.6917 H       1  UNL1        0.2105
     23 C         144.0935  142.0517  160.5771 C.3     1  UNL1        0.1007
     24 C         144.1473  142.0652  162.0761 C.ar    1  UNL1        0.0129
     25 C         145.3799  141.9037  162.9155 C.ar    1  UNL1        0.0176
     26 C         144.9725  141.9812  164.3570 C.ar    1  UNL1        0.0799
     27 N         143.4880  142.1906  164.4085 N.ar    1  UNL1       -0.3038
     28 C         142.9781  142.2425  162.9988 C.ar    1  UNL1        0.0772
     29 C         142.6591  142.3245  165.6515 C.ar    1  UNL1        0.0640
     30 C         143.3049  142.2057  167.0000 C.ar    1  UNL1        0.0175
     31 C         142.4760  142.3396  168.2430 C.ar    1  UNL1        0.0053
     32 C         141.0013  142.5924  168.1374 C.ar    1  UNL1        0.0715
     33 C         140.3554  142.7112  166.7888 C.ar    1  UNL1        0.0053
     34 C         141.1843  142.5773  165.5458 C.ar    1  UNL1        0.0175
     35 C         140.1724  142.7263  169.3803 C.3     1  UNL1        0.4186
     36 F         139.3435  142.8603  170.6233 F       1  UNL1       -0.1659
     37 F         139.6188  141.3499  169.1594 F       1  UNL1       -0.1659
     38 F         140.7261  144.1028  169.6013 F       1  UNL1       -0.1659
@<TRIPOS>BOND
     1     7     8    2
     2     8     9   am
     3     9     1    1
     4     1     2    1
     5     2     3    1
     6     3     4    1
     7     4    23    1
     8    23    24    1
     9    24    25   ar
    10    25    26   ar
    11    26    27   ar
    12    27    29    1
    13    29    30   ar
    14    30    31   ar
    15    31    32   ar
    16    32    35    1
    17    35    36    1
    18    35    37    1
    19    35    38    1
    20    32    33   ar
    21    33    34   ar
    22    27    28   ar
    23     4     5    1
    24     5     6    1
    25     8    10   am
    26    10    13    1
    27    13    20    1
    28    20    21    1
    29    13    14    1
    30    14    15   ar
    31    15    16   ar
    32    16    17   ar
    33    17    18   ar
    34    18    19   ar
    35     6     1    1
    36    19    14   ar
    37    28    24   ar
    38    34    29   ar
    39     9    11    1
    40    10    12    1
    41    21    22    1
@<TRIPOS>MOLECULE
*****
 38 41 0 0 0
SMALL
GASTEIGER

@<TRIPOS>ATOM
      1 C         143.4921  140.3117  158.2810 C.3     1  UNL1        0.0758
      2 C         142.9892  141.6749  157.9085 C.3     1  UNL1        0.0370
      3 C         142.7727  142.7107  158.9716 C.3     1  UNL1        0.0741
      4 N         143.0592  142.3834  160.4072 N.3     1  UNL1       -0.2688
      5 C         143.5622  141.0202  160.7796 C.3     1  UNL1        0.0741
      6 C         143.7786  139.9844  159.7166 C.3     1  UNL1        0.0370
      7 O         141.5079  138.0899  157.9254 O.2     1  UNL1       -0.2528
      8 C         142.7165  138.1649  157.0401 C.2     1  UNL1        0.3010
      9 N         143.7086  139.2758  157.2179 N.am    1  UNL1       -0.2905
     10 N         142.9330  137.1290  155.9770 N.am    1  UNL1       -0.2844
     11 H         144.5018  139.3250  156.6369 H       1  UNL1        0.1509
     12 H         143.7262  137.1782  155.3960 H       1  UNL1        0.1513
     13 CA        141.9409  136.0181  155.7993 C.3     1  UNL1        0.1248
     14 C         142.3335  134.6047  156.1126 C.ar    1  UNL1       -0.0020
     15 C         143.4250  134.3319  157.1047 C.ar    1  UNL1       -0.0026
     16 C         143.8176  132.9185  157.4180 C.ar    1  UNL1       -0.0003
     17 C         143.1187  131.7779  156.7393 C.ar    1  UNL1       -0.0000
     18 C         142.0272  132.0508  155.7472 C.ar    1  UNL1       -0.0003
     19 C         141.6346  133.4642  155.4338 C.ar    1  UNL1       -0.0026
     20 C         140.5562  136.3206  155.3081 C.3     1  UNL1        0.1612
     21 O         139.4490  136.5656  156.2900 O.3     1  UNL1       -0.3799
     22 H         139.2710  135.7515  156.7863 H       1  UNL1        0.2105
     23 C         142.8428  143.4193  161.4702 C.3     1  UNL1        0.1007
     24 C         143.0827  143.0771  162.9108 C.ar    1  UNL1        0.0129
     25 C         144.3636  143.2817  163.6640 C.ar    1  UNL1        0.0176
     26 C         144.1565  142.8013  165.0698 C.ar    1  UNL1        0.0799
     27 N         142.7475  142.2998  165.1855 N.ar    1  UNL1       -0.3038
     28 C         142.0839  142.4703  163.8511 C.ar    1  UNL1        0.0772
     29 C         142.1134  141.7282  166.4189 C.ar    1  UNL1        0.0640
     30 C         142.5212  140.3716  166.9119 C.ar    1  UNL1        0.0175
     31 C         141.8872  139.8000  168.1453 C.ar    1  UNL1        0.0053
     32 C         140.8454  140.5850  168.8857 C.ar    1  UNL1        0.0715
     33 C         140.4376  141.9417  168.3927 C.ar    1  UNL1        0.0053
     34 C         141.0716  142.5133  167.1593 C.ar    1  UNL1        0.0175
     35 C         140.2114  140.0134  170.1190 C.3     1  UNL1        0.4186
     36 F         139.5773  139.4419  171.3525 F       1  UNL1       -0.1659
     37 F         141.3902  139.1045  170.3038 F       1  UNL1       -0.1659
     38 F         139.0325  140.9224  169.9343 F       1  UNL1       -0.1659
@<TRIPOS>BOND
     1     7     8    2
     2     8     9   am
     3     9     1    1
     4     1     2    1
     5     2     3    1
     6     3     4    1
     7     4    23    1
     8    23    24    1
     9    24    25   ar
    10    25    26   ar
    11    26    27   ar
    12    27    29    1
    13    29    30   ar
    14    30    31   ar
    15    31    32   ar
    16    32    35    1
    17    35    36    1
    18    35    37    1
    19    35    38    1
    20    32    33   ar
    21    33    34   ar
    22    27    28   ar
    23     4     5    1
    24     5     6    1
    25     8    10   am
    26    10    13    1
    27    13    20    1
    28    20    21    1
    29    13    14    1
    30    14    15   ar
    31    15    16   ar
    32    16    17   ar
    33    17    18   ar
    34    18    19   ar
    35     6     1    1
    36    19    14   ar
    37    28    24   ar
    38    34    29   ar
    39     9    11    1
    40    10    12    1
    41    21    22    1
@<TRIPOS>MOLECULE
*****
 38 41 0 0 0
SMALL
GASTEIGER

@<TRIPOS>ATOM
      1 C         142.8834  140.7176  157.6306 C.3     1  UNL1        0.0758
      2 C         144.0225  140.8136  158.6018 C.3     1  UNL1        0.0370
      3 C         143.9675  141.8044  159.7266 C.3     1  UNL1        0.0741
      4 N         142.7735  142.6992  159.8802 N.3     1  UNL1       -0.2688
      5 C         141.6344  142.6032  158.9091 C.3     1  UNL1        0.0741
      6 C         141.6893  141.6124  157.7843 C.3     1  UNL1        0.0370
      7 O         141.1677  138.2579  157.7131 O.2     1  UNL1       -0.2528
      8 C         142.0805  138.4969  156.5470 C.2     1  UNL1        0.3010
      9 N         142.9383  139.7267  156.5058 N.am    1  UNL1       -0.2905
     10 N         142.1354  137.5061  155.4222 N.am    1  UNL1       -0.2844
     11 H         143.5374  139.8835  155.7404 H       1  UNL1        0.1509
     12 H         142.7344  137.6629  154.6568 H       1  UNL1        0.1513
     13 CA        141.2775  136.2763  155.4634 C.3     1  UNL1        0.1248
     14 C         141.8816  134.9524  155.8270 C.ar    1  UNL1       -0.0020
     15 C         143.0183  134.8896  156.8039 C.ar    1  UNL1       -0.0026
     16 C         143.6224  133.5656  157.1675 C.ar    1  UNL1       -0.0003
     17 C         143.0899  132.3045  156.5543 C.ar    1  UNL1       -0.0000
     18 C         141.9533  132.3673  155.5775 C.ar    1  UNL1       -0.0003
     19 C         141.3491  133.6913  155.2139 C.ar    1  UNL1       -0.0026
     20 C         139.8156  136.3705  155.1410 C.3     1  UNL1        0.1612
     21 O         138.8304  136.7130  156.2190 O.3     1  UNL1       -0.3799
     22 H         138.8064  135.9981  156.8741 H       1  UNL1        0.2105
     23 C         142.7186  143.6901  161.0051 C.3     1  UNL1        0.1007
     24 C         142.1221  143.2956  162.3236 C.ar    1  UNL1        0.0129
     25 C         142.2020  144.0824  163.5982 C.ar    1  UNL1        0.0176
     26 C         141.4702  143.3182  164.6614 C.ar    1  UNL1        0.0799
     27 N         140.9380  142.0589  164.0439 N.ar    1  UNL1       -0.3038
     28 C         141.3409  142.0450  162.5991 C.ar    1  UNL1        0.0772
     29 C         140.1426  140.9997  164.7477 C.ar    1  UNL1        0.0640
     30 C         139.5508  139.8636  163.9674 C.ar    1  UNL1        0.0175
     31 C         138.7554  138.8043  164.6712 C.ar    1  UNL1        0.0053
     32 C         138.5519  138.8812  166.1552 C.ar    1  UNL1        0.0715
     33 C         139.1437  140.0173  166.9356 C.ar    1  UNL1        0.0053
     34 C         139.9390  141.0766  166.2318 C.ar    1  UNL1        0.0175
     35 C         137.7565  137.8219  166.8590 C.3     1  UNL1        0.4186
     36 F         136.9611  136.7626  167.5628 F       1  UNL1       -0.1659
     37 F         137.3443  138.8219  167.8983 F       1  UNL1       -0.1659
     38 F         138.1687  136.8219  165.8197 F       1  UNL1       -0.1659
@<TRIPOS>BOND
     1     7     8    2
     2     8     9   am
     3     9     1    1
     4     1     2    1
     5     2     3    1
     6     3     4    1
     7     4    23    1
     8    23    24    1
     9    24    25   ar
    10    25    26   ar
    11    26    27   ar
    12    27    29    1
    13    29    30   ar
    14    30    31   ar
    15    31    32   ar
    16    32    35    1
    17    35    36    1
    18    35    37    1
    19    35    38    1
    20    32    33   ar
    21    33    34   ar
    22    27    28   ar
    23     4     5    1
    24     5     6    1
    25     8    10   am
    26    10    13    1
    27    13    20    1
    28    20    21    1
    29    13    14    1
    30    14    15   ar
    31    15    16   ar
    32    16    17   ar
    33    17    18   ar
    34    18    19   ar
    35     6     1    1
    36    19    14   ar
    37    28    24   ar
    38    34    29   ar
    39     9    11    1
    40    10    12    1
    41    21    22    1
@<TRIPOS>MOLECULE
*****
 38 41 0 0 0
SMALL
GASTEIGER

@<TRIPOS>ATOM
      1 C         139.4333  139.0349  158.0790 C.3     1  UNL1        0.0758
      2 C         139.4584  138.8430  159.5664 C.3     1  UNL1        0.0370
      3 C         139.5481  140.0333  160.4747 C.3     1  UNL1        0.0741
      4 N         139.6127  141.4155  159.8956 N.3     1  UNL1       -0.2688
      5 C         139.5876  141.6074  158.4081 C.3     1  UNL1        0.0741
      6 C         139.4979  140.4171  157.4998 C.3     1  UNL1        0.0370
      7 O         141.9336  137.8015  156.9711 O.2     1  UNL1       -0.2528
      8 C         140.5937  137.2279  156.6167 C.2     1  UNL1        0.3010
      9 N         139.3435  137.8445  157.1706 N.am    1  UNL1       -0.2905
     10 N         140.5039  136.0375  155.7083 N.am    1  UNL1       -0.2844
     11 H         138.4641  137.4680  156.9380 H       1  UNL1        0.1509
     12 H         139.6245  135.6610  155.4757 H       1  UNL1        0.1513
     13 CA        141.7541  135.4208  155.1544 C.3     1  UNL1        0.1248
     14 C         142.3657  134.2296  155.8301 C.ar    1  UNL1       -0.0020
     15 C         141.9132  132.8464  155.4663 C.ar    1  UNL1       -0.0026
     16 C         142.5248  131.6552  156.1420 C.ar    1  UNL1       -0.0003
     17 C         143.5889  131.8469  157.1817 C.ar    1  UNL1       -0.0000
     18 C         144.0414  133.2299  157.5456 C.ar    1  UNL1       -0.0003
     19 C         143.4298  134.4213  156.8698 C.ar    1  UNL1       -0.0026
     20 C         142.3926  135.9955  153.9247 C.3     1  UNL1        0.1612
     21 O         143.1723  137.2739  154.0121 O.3     1  UNL1       -0.3799
     22 H         142.5740  138.0026  154.2399 H       1  UNL1        0.2105
     23 C         139.7025  142.6059  160.8039 C.3     1  UNL1        0.1007
     24 C         139.2327  142.5022  162.2247 C.ar    1  UNL1        0.0129
     25 C         137.8336  142.7403  162.7102 C.ar    1  UNL1        0.0176
     26 C         137.8157  142.5275  164.1949 C.ar    1  UNL1        0.0799
     27 N         139.2038  142.1579  164.6270 N.ar    1  UNL1       -0.3038
     28 C         140.0795  142.1423  163.4093 C.ar    1  UNL1        0.0772
     29 C         139.6396  141.8568  166.0304 C.ar    1  UNL1        0.0640
     30 C         140.3330  142.9100  166.8426 C.ar    1  UNL1        0.0175
     31 C         140.7688  142.6089  168.2460 C.ar    1  UNL1        0.0053
     32 C         140.5112  141.2546  168.8370 C.ar    1  UNL1        0.0715
     33 C         139.8177  140.2014  168.0248 C.ar    1  UNL1        0.0053
     34 C         139.3819  140.5025  166.6215 C.ar    1  UNL1        0.0175
     35 C         140.9470  140.9535  170.2404 C.3     1  UNL1        0.4186
     36 F         141.3828  140.6525  171.6438 F       1  UNL1       -0.1659
     37 F         141.3122  139.5585  169.8277 F       1  UNL1       -0.1659
     38 F         140.5818  142.3487  170.6532 F       1  UNL1       -0.1659
@<TRIPOS>BOND
     1     7     8    2
     2     8     9   am
     3     9     1    1
     4     1     2    1
     5     2     3    1
     6     3     4    1
     7     4    23    1
     8    23    24    1
     9    24    25   ar
    10    25    26   ar
    11    26    27   ar
    12    27    29    1
    13    29    30   ar
    14    30    31   ar
    15    31    32   ar
    16    32    35    1
    17    35    36    1
    18    35    37    1
    19    35    38    1
    20    32    33   ar
    21    33    34   ar
    22    27    28   ar
    23     4     5    1
    24     5     6    1
    25     8    10   am
    26    10    13    1
    27    13    20    1
    28    20    21    1
    29    13    14    1
    30    14    15   ar
    31    15    16   ar
    32    16    17   ar
    33    17    18   ar
    34    18    19   ar
    35     6     1    1
    36    19    14   ar
    37    28    24   ar
    38    34    29   ar
    39     9    11    1
    40    10    12    1
    41    21    22    1
@<TRIPOS>MOLECULE
*****
 38 41 0 0 0
SMALL
GASTEIGER

@<TRIPOS>ATOM
      1 C         141.9370  136.1993  156.2173 C.3     1  UNL1        0.0758
      2 C         142.9546  136.7429  157.1759 C.3     1  UNL1        0.0370
      3 C         142.5716  137.8232  158.1434 C.3     1  UNL1        0.0741
      4 N         141.1709  138.3598  158.1524 N.3     1  UNL1       -0.2688
      5 C         140.1532  137.8162  157.1939 C.3     1  UNL1        0.0741
      6 C         140.5363  136.7359  156.2263 C.3     1  UNL1        0.0370
      7 O         142.6184  133.4565  157.2238 O.2     1  UNL1       -0.2528
      8 C         142.6608  133.7476  155.7530 C.2     1  UNL1        0.3010
      9 N         142.3201  135.1190  155.2497 N.am    1  UNL1       -0.2905
     10 N         143.0438  132.6673  154.7853 N.am    1  UNL1       -0.2844
     11 H         142.3479  135.3100  154.2843 H       1  UNL1        0.1509
     12 H         143.0716  132.8583  153.8199 H       1  UNL1        0.1513
     13 CA        143.3845  131.2959  155.2886 C.3     1  UNL1        0.1248
     14 C         142.3316  130.2283  155.3271 C.ar    1  UNL1       -0.0020
     15 C         140.9419  130.5276  154.8484 C.ar    1  UNL1       -0.0026
     16 C         139.8891  129.4600  154.8869 C.ar    1  UNL1       -0.0003
     17 C         140.2259  128.0928  155.4042 C.ar    1  UNL1       -0.0000
     18 C         141.6155  127.7934  155.8830 C.ar    1  UNL1       -0.0003
     19 C         142.6684  128.8611  155.8444 C.ar    1  UNL1       -0.0026
     20 C         144.7780  130.9923  155.7533 C.3     1  UNL1        0.1612
     21 O         145.5860  132.0511  156.4431 O.3     1  UNL1       -0.3799
     22 H         145.7757  132.7702  155.8203 H       1  UNL1        0.2105
     23 C         140.7878  139.4402  159.1201 C.3     1  UNL1        0.1007
     24 C         140.1998  139.0799  160.4521 C.ar    1  UNL1        0.0129
     25 C         139.0774  138.1131  160.6880 C.ar    1  UNL1        0.0176
     26 C         138.8148  138.0589  162.1638 C.ar    1  UNL1        0.0799
     27 N         139.7749  138.9923  162.8401 N.ar    1  UNL1       -0.3038
     28 C         140.6308  139.6233  161.7822 C.ar    1  UNL1        0.0772
     29 C         139.8634  139.2494  164.3152 C.ar    1  UNL1        0.0640
     30 C         141.1578  139.7051  164.9208 C.ar    1  UNL1        0.0175
     31 C         141.2464  139.9622  166.3959 C.ar    1  UNL1        0.0053
     32 C         140.0405  139.7637  167.2655 C.ar    1  UNL1        0.0715
     33 C         138.7460  139.3081  166.6600 C.ar    1  UNL1        0.0053
     34 C         138.6574  139.0509  165.1849 C.ar    1  UNL1        0.0175
     35 C         140.1290  140.0209  168.7406 C.3     1  UNL1        0.4186
     36 F         140.2176  140.2780  170.2157 F       1  UNL1       -0.1659
     37 F         138.6384  139.8957  168.8519 F       1  UNL1       -0.1659
     38 F         141.6197  140.1460  168.6293 F       1  UNL1       -0.1659
@<TRIPOS>BOND
     1     7     8    2
     2     8     9   am
     3     9     1    1
     4     1     2    1
     5     2     3    1
     6     3     4    1
     7     4    23    1
     8    23    24    1
     9    24    25   ar
    10    25    26   ar
    11    26    27   ar
    12    27    29    1
    13    29    30   ar
    14    30    31   ar
    15    31    32   ar
    16    32    35    1
    17    35    36    1
    18    35    37    1
    19    35    38    1
    20    32    33   ar
    21    33    34   ar
    22    27    28   ar
    23     4     5    1
    24     5     6    1
    25     8    10   am
    26    10    13    1
    27    13    20    1
    28    20    21    1
    29    13    14    1
    30    14    15   ar
    31    15    16   ar
    32    16    17   ar
    33    17    18   ar
    34    18    19   ar
    35     6     1    1
    36    19    14   ar
    37    28    24   ar
    38    34    29   ar
    39     9    11    1
    40    10    12    1
    41    21    22    1
@<TRIPOS>MOLECULE
*****
 38 41 0 0 0
SMALL
GASTEIGER

@<TRIPOS>ATOM
      1 C         142.9187  139.6346  157.7850 C.3     1  UNL1        0.0758
      2 C         141.8429  140.4847  157.1769 C.3     1  UNL1        0.0370
      3 C         141.0546  141.4264  158.0381 C.3     1  UNL1        0.0741
      4 N         141.3420  141.5179  159.5074 N.3     1  UNL1       -0.2688
      5 C         142.4178  140.6678  160.1156 C.3     1  UNL1        0.0741
      6 C         143.2062  139.7262  159.2544 C.3     1  UNL1        0.0370
      7 O         142.0765  136.7659  157.5381 O.2     1  UNL1       -0.2528
      8 C         143.2861  137.2586  156.8004 C.2     1  UNL1        0.3010
      9 N         143.7072  138.6929  156.9238 N.am    1  UNL1       -0.2905
     10 N         144.0745  136.3168  155.9392 N.am    1  UNL1       -0.2844
     11 H         144.5011  139.0163  156.4397 H       1  UNL1        0.1509
     12 H         144.8684  136.6402  155.4550 H       1  UNL1        0.1513
     13 CA        143.6534  134.8825  155.8157 C.3     1  UNL1        0.1248
     14 C         142.8883  134.4268  154.6087 C.ar    1  UNL1       -0.0020
     15 C         142.7953  132.9644  154.2878 C.ar    1  UNL1       -0.0026
     16 C         142.0302  132.5087  153.0808 C.ar    1  UNL1       -0.0003
     17 C         141.3581  133.5152  152.1947 C.ar    1  UNL1       -0.0000
     18 C         141.4510  134.9775  152.5156 C.ar    1  UNL1       -0.0003
     19 C         142.2162  135.4333  153.7227 C.ar    1  UNL1       -0.0026
     20 C         143.9974  133.9039  156.8993 C.3     1  UNL1        0.1612
     21 O         143.2789  133.9585  158.2149 O.3     1  UNL1       -0.3799
     22 H         143.4983  134.7871  158.6689 H       1  UNL1        0.2105
     23 C         140.5535  142.4597  160.3686 C.3     1  UNL1        0.1007
     24 C         139.8266  141.9429  161.5746 C.ar    1  UNL1        0.0129
     25 C         138.4099  141.4512  161.6066 C.ar    1  UNL1        0.0176
     26 C         138.0965  141.0315  163.0121 C.ar    1  UNL1        0.0799
     27 N         139.3196  141.2637  163.8489 N.ar    1  UNL1       -0.3038
     28 C         140.3889  141.8269  162.9604 C.ar    1  UNL1        0.0772
     29 C         139.4504  140.9820  165.3164 C.ar    1  UNL1        0.0640
     30 C         140.1905  141.9409  166.2010 C.ar    1  UNL1        0.0175
     31 C         140.3213  141.6593  167.6685 C.ar    1  UNL1        0.0053
     32 C         139.7121  140.4188  168.2513 C.ar    1  UNL1        0.0715
     33 C         138.9720  139.4598  167.3667 C.ar    1  UNL1        0.0053
     34 C         138.8412  139.7414  165.8992 C.ar    1  UNL1        0.0175
     35 C         139.8429  140.1371  169.7188 C.3     1  UNL1        0.4186
     36 F         139.9736  139.8555  171.1864 F       1  UNL1       -0.1659
     37 F         141.1454  139.4366  169.4683 F       1  UNL1       -0.1659
     38 F         138.5404  140.8377  169.9694 F       1  UNL1       -0.1659
@<TRIPOS>BOND
     1     7     8    2
     2     8     9   am
     3     9     1    1
     4     1     2    1
     5     2     3    1
     6     3     4    1
     7     4    23    1
     8    23    24    1
     9    24    25   ar
    10    25    26   ar
    11    26    27   ar
    12    27    29    1
    13    29    30   ar
    14    30    31   ar
    15    31    32   ar
    16    32    35    1
    17    35    36    1
    18    35    37    1
    19    35    38    1
    20    32    33   ar
    21    33    34   ar
    22    27    28   ar
    23     4     5    1
    24     5     6    1
    25     8    10   am
    26    10    13    1
    27    13    20    1
    28    20    21    1
    29    13    14    1
    30    14    15   ar
    31    15    16   ar
    32    16    17   ar
    33    17    18   ar
    34    18    19   ar
    35     6     1    1
    36    19    14   ar
    37    28    24   ar
    38    34    29   ar
    39     9    11    1
    40    10    12    1
    41    21    22    1
@<TRIPOS>MOLECULE
*****
 38 41 0 0 0
SMALL
GASTEIGER

@<TRIPOS>ATOM
      1 C         141.7754  143.2141  157.5083 C.3     1  UNL1        0.0758
      2 C         143.0958  142.5893  157.1675 C.3     1  UNL1        0.0370
      3 C         143.1601  141.4659  156.1758 C.3     1  UNL1        0.0741
      4 N         141.9041  140.9672  155.5248 N.3     1  UNL1       -0.2688
      5 C         140.5837  141.5920  155.8657 C.3     1  UNL1        0.0741
      6 C         140.5194  142.7154  156.8574 C.3     1  UNL1        0.0370
      7 O         141.7896  142.6217  160.4492 O.2     1  UNL1       -0.2528
      8 C         141.7181  144.0414  159.9705 C.2     1  UNL1        0.3010
      9 N         141.7110  144.3377  158.5001 N.am    1  UNL1       -0.2905
     10 N         141.6537  145.1650  160.9623 N.am    1  UNL1       -0.2844
     11 H         141.6641  145.2695  158.1860 H       1  UNL1        0.1509
     12 H         141.6068  146.0968  160.6482 H       1  UNL1        0.1513
     13 CA        141.6608  144.8687  162.4327 C.3     1  UNL1        0.1248
     14 C         140.3715  144.5958  163.1490 C.ar    1  UNL1       -0.0020
     15 C         140.3739  144.3429  164.6276 C.ar    1  UNL1       -0.0026
     16 C         139.0845  144.0700  165.3439 C.ar    1  UNL1       -0.0003
     17 C         137.7928  144.0501  164.5816 C.ar    1  UNL1       -0.0000
     18 C         137.7903  144.3031  163.1032 C.ar    1  UNL1       -0.0003
     19 C         139.0797  144.5760  162.3868 C.ar    1  UNL1       -0.0026
     20 C         142.9573  144.8453  163.1869 C.3     1  UNL1        0.1612
     21 O         144.2239  145.2859  162.5149 O.3     1  UNL1       -0.3799
     22 H         144.4415  144.6689  161.7988 H       1  UNL1        0.2105
     23 C         141.9684  139.8436  154.5330 C.3     1  UNL1        0.1007
     24 C         141.6059  138.4502  154.9537 C.ar    1  UNL1        0.0129
     25 C         140.2169  137.8934  155.0560 C.ar    1  UNL1        0.0176
     26 C         140.3213  136.4680  155.5114 C.ar    1  UNL1        0.0799
     27 N         141.7749  136.1439  155.6905 N.ar    1  UNL1       -0.3038
     28 C         142.5688  137.3690  155.3458 C.ar    1  UNL1        0.0772
     29 C         142.3360  134.8261  156.1361 C.ar    1  UNL1        0.0640
     30 C         143.4554  134.7863  157.1337 C.ar    1  UNL1        0.0175
     31 C         144.0165  133.4685  157.5793 C.ar    1  UNL1        0.0053
     32 C         143.4582  132.1905  157.0273 C.ar    1  UNL1        0.0715
     33 C         142.3388  132.2302  156.0296 C.ar    1  UNL1        0.0053
     34 C         141.7777  133.5480  155.5840 C.ar    1  UNL1        0.0175
     35 C         144.0193  130.8727  157.4729 C.3     1  UNL1        0.4186
     36 F         144.5805  129.5549  157.9185 F       1  UNL1       -0.1659
     37 F         142.7965  130.1764  156.9533 F       1  UNL1       -0.1659
     38 F         145.2422  131.5690  157.9924 F       1  UNL1       -0.1659
@<TRIPOS>BOND
     1     7     8    2
     2     8     9   am
     3     9     1    1
     4     1     2    1
     5     2     3    1
     6     3     4    1
     7     4    23    1
     8    23    24    1
     9    24    25   ar
    10    25    26   ar
    11    26    27   ar
    12    27    29    1
    13    29    30   ar
    14    30    31   ar
    15    31    32   ar
    16    32    35    1
    17    35    36    1
    18    35    37    1
    19    35    38    1
    20    32    33   ar
    21    33    34   ar
    22    27    28   ar
    23     4     5    1
    24     5     6    1
    25     8    10   am
    26    10    13    1
    27    13    20    1
    28    20    21    1
    29    13    14    1
    30    14    15   ar
    31    15    16   ar
    32    16    17   ar
    33    17    18   ar
    34    18    19   ar
    35     6     1    1
    36    19    14   ar
    37    28    24   ar
    38    34    29   ar
    39     9    11    1
    40    10    12    1
    41    21    22    1
