@<TRIPOS>MOLECULE
*****
 27 31 0 0 0
SMALL
GASTEIGER

@<TRIPOS>ATOM
      1 C         145.4753  142.1498  163.9843 C.3     1  UNL1        0.1123
      2 N         144.2615  142.8316  163.4257 N.am    1  UNL1       -0.2606
      3 C         144.2115  143.6563  162.1738 C.3     1  UNL1        0.1169
      4 C         142.8037  144.1427  161.9953 C.3     1  UNL1        0.1212
      5 N         141.9839  143.6186  163.1369 N.am    1  UNL1       -0.2413
      6 C         142.8849  142.8082  164.0209 C.2     1  UNL1        0.3111
      7 O         142.4803  142.0990  165.2792 O.2     1  UNL1       -0.2520
      8 C         140.5202  143.8620  163.3559 C.ar    1  UNL1        0.0562
      9 C         139.5306  143.4906  162.2916 C.ar    1  UNL1        0.0150
     10 C         138.0667  143.7340  162.5105 C.ar    1  UNL1        0.0021
     11 C         137.5925  144.3490  163.7938 C.ar    1  UNL1        0.0115
     12 C         138.5820  144.7204  164.8582 C.ar    1  UNL1        0.0589
     13 CL        138.1077  145.3353  166.1415 Cl      1  UNL1       -0.0822
     14 C         140.0458  144.4770  164.6393 C.ar    1  UNL1        0.0263
     15 C         145.5643  140.6524  163.9773 C.3     1  UNL1        0.0939
     16 C         143.5520  138.9280  165.6083 C.3     1  UNL1        0.0000
     17 C         142.8514  138.4385  164.3757 C.3     1  UNL1        0.0013
     18 C         144.0180  139.3810  164.3590 C.3     1  UNL1        0.0000
     19 C         141.8282  137.5714  165.0475 C.3     1  UNL1        0.0014
     20 C         140.9759  136.9492  163.9814 C.3     1  UNL1        0.0001
     21 C         141.4723  137.4318  162.6507 C.3     1  UNL1        0.0013
     22 C         142.6314  138.3522  162.8944 C.3     1  UNL1        0.0148
     23 C         143.1278  138.8348  161.5637 C.3     1  UNL1        0.0186
     24 C         144.2869  139.7552  161.8074 C.3     1  UNL1        0.0721
     25 N         144.5069  139.8415  163.2887 N.3     1  UNL1       -0.2725
     26 C         143.4837  138.9744  163.9605 C.3     1  UNL1        0.0575
     27 C         142.9873  138.4918  165.2912 C.3     1  UNL1        0.0160
@<TRIPOS>BOND
     1    16    17    1
     2    17    18    1
     3    17    19    1
     4    19    20    1
     5    20    21    1
     6    22    21    1
     7    22    23    1
     8    23    24    1
     9    24    25    1
    10    25    15    1
    11    15     1    1
    12     1     2    1
    13     2     3    1
    14     3     4    1
    15     4     5    1
    16     5     8    1
    17     8     9   ar
    18     9    10   ar
    19    10    11   ar
    20    11    12   ar
    21    12    13    1
    22    12    14   ar
    23     5     6   am
    24     6     7    2
    25    25    26    1
    26    26    27    1
    27    22    17    1
    28     6     2   am
    29    27    19    1
    30    26    22    1
    31    14     8   ar
@<TRIPOS>MOLECULE
*****
 27 31 0 0 0
SMALL
GASTEIGER

@<TRIPOS>ATOM
      1 C         139.2201  145.1529  162.4108 C.3     1  UNL1        0.1123
      2 N         138.8754  143.6935  162.3744 N.am    1  UNL1       -0.2606
      3 C         138.1966  142.9758  161.2456 C.3     1  UNL1        0.1169
      4 C         138.0507  141.5343  161.6342 C.3     1  UNL1        0.1212
      5 N         138.6392  141.3613  163.0030 N.am    1  UNL1       -0.2413
      6 C         139.1489  142.6958  163.4605 C.2     1  UNL1        0.3111
      7 O         139.8152  142.9821  164.7735 O.2     1  UNL1       -0.2520
      8 C         138.7062  140.0789  163.7781 C.ar    1  UNL1        0.0562
      9 C         139.3495  138.8678  163.1703 C.ar    1  UNL1        0.0150
     10 C         139.4166  137.5854  163.9454 C.ar    1  UNL1        0.0021
     11 C         138.8403  137.5139  165.3284 C.ar    1  UNL1        0.0115
     12 C         138.1970  138.7250  165.9363 C.ar    1  UNL1        0.0589
     13 CL        137.6207  138.6535  167.3193 Cl      1  UNL1       -0.0822
     14 C         138.1299  140.0074  165.1612 C.ar    1  UNL1        0.0263
     15 C         140.5468  145.6233  161.8924 C.3     1  UNL1        0.0939
     16 C         142.6002  144.9091  164.1188 C.3     1  UNL1        0.0000
     17 C         143.3394  143.9464  163.2376 C.3     1  UNL1        0.0013
     18 C         142.1364  144.7289  162.8014 C.3     1  UNL1        0.0000
     19 C         144.3856  143.5208  164.2248 C.3     1  UNL1        0.0014
     20 C         145.2790  142.5215  163.5515 C.3     1  UNL1        0.0001
     21 C         144.7850  142.3295  162.1482 C.3     1  UNL1        0.0013
     22 C         143.5863  143.2102  161.9543 C.3     1  UNL1        0.0148
     23 C         143.0923  143.0182  160.5510 C.3     1  UNL1        0.0186
     24 C         141.8936  143.8988  160.3570 C.3     1  UNL1        0.0721
     25 N         141.6467  144.6350  161.6404 N.3     1  UNL1       -0.2725
     26 C         142.6929  144.2094  162.6276 C.3     1  UNL1        0.0575
     27 C         143.1869  144.4014  164.0308 C.3     1  UNL1        0.0160
@<TRIPOS>BOND
     1    16    17    1
     2    17    18    1
     3    17    19    1
     4    19    20    1
     5    20    21    1
     6    22    21    1
     7    22    23    1
     8    23    24    1
     9    24    25    1
    10    25    15    1
    11    15     1    1
    12     1     2    1
    13     2     3    1
    14     3     4    1
    15     4     5    1
    16     5     8    1
    17     8     9   ar
    18     9    10   ar
    19    10    11   ar
    20    11    12   ar
    21    12    13    1
    22    12    14   ar
    23     5     6   am
    24     6     7    2
    25    25    26    1
    26    26    27    1
    27    22    17    1
    28     6     2   am
    29    27    19    1
    30    26    22    1
    31    14     8   ar
@<TRIPOS>MOLECULE
*****
 27 31 0 0 0
SMALL
GASTEIGER

@<TRIPOS>ATOM
      1 C         144.5237  139.5100  163.8734 C.3     1  UNL1        0.1123
      2 N         144.2113  140.9569  163.6305 N.am    1  UNL1       -0.2606
      3 C         145.1075  142.1175  163.9468 C.3     1  UNL1        0.1169
      4 C         144.3979  143.3750  163.5405 C.3     1  UNL1        0.1212
      5 N         143.0633  142.9916  162.9732 N.am    1  UNL1       -0.2413
      6 C         142.9480  141.4971  163.0288 C.2     1  UNL1        0.3111
      7 O         141.7753  140.6854  162.5643 O.2     1  UNL1       -0.2520
      8 C         142.0261  143.9368  162.4433 C.ar    1  UNL1        0.0562
      9 C         141.0535  144.5864  163.3825 C.ar    1  UNL1        0.0150
     10 C         140.0163  145.5316  162.8526 C.ar    1  UNL1        0.0021
     11 C         139.9517  145.8273  161.3835 C.ar    1  UNL1        0.0115
     12 C         140.9243  145.1778  160.4442 C.ar    1  UNL1        0.0589
     13 CL        140.8597  145.4735  158.9751 Cl      1  UNL1       -0.0822
     14 C         141.9615  144.2326  160.9741 C.ar    1  UNL1        0.0263
     15 C         143.9993  138.8252  165.1006 C.3     1  UNL1        0.0939
     16 C         141.2998  137.4223  164.4466 C.3     1  UNL1        0.0000
     17 C         140.5187  138.3308  165.3491 C.3     1  UNL1        0.0013
     18 C         142.0018  138.4234  165.1452 C.3     1  UNL1        0.0000
     19 C         139.1601  137.7397  165.1155 C.3     1  UNL1        0.0014
     20 C         138.1717  138.5086  165.9413 C.3     1  UNL1        0.0001
     21 C         138.9196  139.5749  166.6853 C.3     1  UNL1        0.0013
     22 C         140.3701  139.4650  166.3193 C.3     1  UNL1        0.0148
     23 C         141.1179  140.5314  167.0634 C.3     1  UNL1        0.0186
     24 C         142.5685  140.4216  166.6975 C.3     1  UNL1        0.0721
     25 N         142.7171  139.2872  165.7272 N.3     1  UNL1       -0.2725
     26 C         141.3584  138.6961  165.4935 C.3     1  UNL1        0.0575
     27 C         140.6106  137.6298  164.7495 C.3     1  UNL1        0.0160
@<TRIPOS>BOND
     1    16    17    1
     2    17    18    1
     3    17    19    1
     4    19    20    1
     5    20    21    1
     6    22    21    1
     7    22    23    1
     8    23    24    1
     9    24    25    1
    10    25    15    1
    11    15     1    1
    12     1     2    1
    13     2     3    1
    14     3     4    1
    15     4     5    1
    16     5     8    1
    17     8     9   ar
    18     9    10   ar
    19    10    11   ar
    20    11    12   ar
    21    12    13    1
    22    12    14   ar
    23     5     6   am
    24     6     7    2
    25    25    26    1
    26    26    27    1
    27    22    17    1
    28     6     2   am
    29    27    19    1
    30    26    22    1
    31    14     8   ar
@<TRIPOS>MOLECULE
*****
 27 31 0 0 0
SMALL
GASTEIGER

@<TRIPOS>ATOM
      1 C         139.0641  139.7511  160.3496 C.3     1  UNL1        0.1123
      2 N         139.3551  139.1549  161.6949 N.am    1  UNL1       -0.2606
      3 C         138.6570  137.9765  162.3067 C.3     1  UNL1        0.1169
      4 C         139.2658  137.7258  163.6545 C.3     1  UNL1        0.1212
      5 N         140.3400  138.7491  163.8757 N.am    1  UNL1       -0.2413
      6 C         140.3952  139.6323  162.6645 C.2     1  UNL1        0.3111
      7 O         141.3269  140.7898  162.4591 O.2     1  UNL1       -0.2520
      8 C         141.2068  138.8682  165.0940 C.ar    1  UNL1        0.0562
      9 C         142.5764  138.2565  165.1028 C.ar    1  UNL1        0.0150
     10 C         143.4432  138.3755  166.3211 C.ar    1  UNL1        0.0021
     11 C         142.9405  139.1064  167.5307 C.ar    1  UNL1        0.0115
     12 C         141.5710  139.7182  167.5220 C.ar    1  UNL1        0.0589
     13 CL        141.0683  140.4490  168.7316 Cl      1  UNL1       -0.0822
     14 C         140.7041  139.5991  166.3037 C.ar    1  UNL1        0.0263
     15 C         138.2457  141.0039  160.2456 C.3     1  UNL1        0.0939
     16 C         137.2805  141.6522  163.1320 C.3     1  UNL1        0.0000
     17 C         138.0558  142.9350  163.1876 C.3     1  UNL1        0.0013
     18 C         138.0420  142.0137  162.0040 C.3     1  UNL1        0.0000
     19 C         137.6623  143.3571  164.5721 C.3     1  UNL1        0.0014
     20 C         138.3380  144.6632  164.8682 C.3     1  UNL1        0.0001
     21 C         139.1491  145.0483  163.6666 C.3     1  UNL1        0.0013
     22 C         138.9747  143.9802  162.6280 C.3     1  UNL1        0.0148
     23 C         139.7858  144.3653  161.4264 C.3     1  UNL1        0.0186
     24 C         139.6115  143.2973  160.3876 C.3     1  UNL1        0.0721
     25 N         138.6926  142.2520  160.9473 N.3     1  UNL1       -0.2725
     26 C         138.2990  142.6741  162.3319 C.3     1  UNL1        0.0575
     27 C         137.4879  142.2890  163.5334 C.3     1  UNL1        0.0160
@<TRIPOS>BOND
     1    16    17    1
     2    17    18    1
     3    17    19    1
     4    19    20    1
     5    20    21    1
     6    22    21    1
     7    22    23    1
     8    23    24    1
     9    24    25    1
    10    25    15    1
    11    15     1    1
    12     1     2    1
    13     2     3    1
    14     3     4    1
    15     4     5    1
    16     5     8    1
    17     8     9   ar
    18     9    10   ar
    19    10    11   ar
    20    11    12   ar
    21    12    13    1
    22    12    14   ar
    23     5     6   am
    24     6     7    2
    25    25    26    1
    26    26    27    1
    27    22    17    1
    28     6     2   am
    29    27    19    1
    30    26    22    1
    31    14     8   ar
@<TRIPOS>MOLECULE
*****
 27 31 0 0 0
SMALL
GASTEIGER

@<TRIPOS>ATOM
      1 C         145.6438  141.5232  163.7363 C.3     1  UNL1        0.1123
      2 N         144.5795  140.6629  164.3503 N.am    1  UNL1       -0.2606
      3 C         144.3414  139.2112  164.0570 C.3     1  UNL1        0.1169
      4 C         143.1812  138.7543  164.8909 C.3     1  UNL1        0.1212
      5 N         142.7024  139.9235  165.6994 N.am    1  UNL1       -0.2413
      6 C         143.5667  141.1031  165.3653 C.2     1  UNL1        0.3111
      7 O         143.4403  142.4810  165.9445 O.2     1  UNL1       -0.2520
      8 C         141.5600  139.9147  166.6714 C.ar    1  UNL1        0.0562
      9 C         141.7703  140.3845  168.0803 C.ar    1  UNL1        0.0150
     10 C         140.6280  140.3756  169.0523 C.ar    1  UNL1        0.0021
     11 C         139.2752  139.8970  168.6155 C.ar    1  UNL1        0.0115
     12 C         139.0648  139.4272  167.2065 C.ar    1  UNL1        0.0589
     13 CL        137.7120  138.9485  166.7697 Cl      1  UNL1       -0.0822
     14 C         140.2072  139.4360  166.2345 C.ar    1  UNL1        0.0263
     15 C         145.3178  142.3941  162.5593 C.3     1  UNL1        0.0939
     16 C         143.7218  144.8762  163.5469 C.3     1  UNL1        0.0000
     17 C         142.4784  144.4660  162.8152 C.3     1  UNL1        0.0013
     18 C         143.7585  143.6845  162.7975 C.3     1  UNL1        0.0000
     19 C         141.6067  145.6165  163.2233 C.3     1  UNL1        0.0014
     20 C         140.2596  145.4242  162.5921 C.3     1  UNL1        0.0001
     21 C         140.2987  144.1548  161.7939 C.3     1  UNL1        0.0013
     22 C         141.6699  143.5626  161.9318 C.3     1  UNL1        0.0148
     23 C         141.7090  142.2932  161.1336 C.3     1  UNL1        0.0186
     24 C         143.0803  141.7010  161.2715 C.3     1  UNL1        0.0721
     25 N         143.8887  142.6044  162.1549 N.3     1  UNL1       -0.2725
     26 C         143.0170  143.7549  162.5630 C.3     1  UNL1        0.0575
     27 C         142.9780  145.0243  163.3612 C.3     1  UNL1        0.0160
@<TRIPOS>BOND
     1    16    17    1
     2    17    18    1
     3    17    19    1
     4    19    20    1
     5    20    21    1
     6    22    21    1
     7    22    23    1
     8    23    24    1
     9    24    25    1
    10    25    15    1
    11    15     1    1
    12     1     2    1
    13     2     3    1
    14     3     4    1
    15     4     5    1
    16     5     8    1
    17     8     9   ar
    18     9    10   ar
    19    10    11   ar
    20    11    12   ar
    21    12    13    1
    22    12    14   ar
    23     5     6   am
    24     6     7    2
    25    25    26    1
    26    26    27    1
    27    22    17    1
    28     6     2   am
    29    27    19    1
    30    26    22    1
    31    14     8   ar
@<TRIPOS>MOLECULE
*****
 27 31 0 0 0
SMALL
GASTEIGER

@<TRIPOS>ATOM
      1 C         137.7432  143.8518  163.6903 C.3     1  UNL1        0.1123
      2 N         138.2389  142.5948  164.3417 N.am    1  UNL1       -0.2606
      3 C         137.8642  141.1948  163.9551 C.3     1  UNL1        0.1169
      4 C         138.5901  140.2519  164.8685 C.3     1  UNL1        0.1212
      5 N         139.4132  141.0693  165.8195 N.am    1  UNL1       -0.2413
      6 C         139.1962  142.5173  165.4938 C.2     1  UNL1        0.3111
      7 O         139.8259  143.6831  166.1969 O.2     1  UNL1       -0.2520
      8 C         140.2980  140.5328  166.9053 C.ar    1  UNL1        0.0562
      9 C         141.6689  140.0229  166.5724 C.ar    1  UNL1        0.0150
     10 C         142.5538  139.4863  167.6583 C.ar    1  UNL1        0.0021
     11 C         142.0678  139.4596  169.0771 C.ar    1  UNL1        0.0115
     12 C         140.6970  139.9695  169.4101 C.ar    1  UNL1        0.0589
     13 CL        140.2110  139.9428  170.8289 Cl      1  UNL1       -0.0822
     14 C         139.8121  140.5061  168.3242 C.ar    1  UNL1        0.0263
     15 C         138.6641  144.6629  162.8276 C.3     1  UNL1        0.0939
     16 C         141.5281  145.4254  163.7758 C.3     1  UNL1        0.0000
     17 C         142.1836  144.4799  162.8135 C.3     1  UNL1        0.0013
     18 C         140.6995  144.6627  162.9306 C.3     1  UNL1        0.0000
     19 C         143.6099  144.7617  163.1825 C.3     1  UNL1        0.0014
     20 C         144.4895  143.9030  162.3229 C.3     1  UNL1        0.0001
     21 C         143.6068  143.0905  161.4226 C.3     1  UNL1        0.0013
     22 C         142.1817  143.4471  161.7257 C.3     1  UNL1        0.0148
     23 C         141.2990  142.6345  160.8254 C.3     1  UNL1        0.0186
     24 C         139.8739  142.9911  161.1285 C.3     1  UNL1        0.0721
     25 N         139.8758  144.0240  162.2163 N.3     1  UNL1       -0.2725
     26 C         141.3021  144.3058  162.5853 C.3     1  UNL1        0.0575
     27 C         142.1848  145.1183  163.4857 C.3     1  UNL1        0.0160
@<TRIPOS>BOND
     1    16    17    1
     2    17    18    1
     3    17    19    1
     4    19    20    1
     5    20    21    1
     6    22    21    1
     7    22    23    1
     8    23    24    1
     9    24    25    1
    10    25    15    1
    11    15     1    1
    12     1     2    1
    13     2     3    1
    14     3     4    1
    15     4     5    1
    16     5     8    1
    17     8     9   ar
    18     9    10   ar
    19    10    11   ar
    20    11    12   ar
    21    12    13    1
    22    12    14   ar
    23     5     6   am
    24     6     7    2
    25    25    26    1
    26    26    27    1
    27    22    17    1
    28     6     2   am
    29    27    19    1
    30    26    22    1
    31    14     8   ar
@<TRIPOS>MOLECULE
*****
 27 31 0 0 0
SMALL
GASTEIGER

@<TRIPOS>ATOM
      1 C         138.8082  138.5728  163.4999 C.3     1  UNL1        0.1123
      2 N         139.0087  139.0177  164.9183 N.am    1  UNL1       -0.2606
      3 C         138.1761  138.6077  166.0968 C.3     1  UNL1        0.1169
      4 C         138.7298  139.2873  167.3141 C.3     1  UNL1        0.1212
      5 N         139.9044  140.1171  166.8878 N.am    1  UNL1       -0.2413
      6 C         140.0767  139.9505  165.4071 C.2     1  UNL1        0.3111
      7 O         141.1319  140.6022  164.5635 O.2     1  UNL1       -0.2520
      8 C         140.7569  140.9647  167.7848 C.ar    1  UNL1        0.0562
      9 C         142.1885  140.5911  168.0315 C.ar    1  UNL1        0.0150
     10 C         143.0411  141.4387  168.9286 C.ar    1  UNL1        0.0021
     11 C         142.4620  142.6600  169.5789 C.ar    1  UNL1        0.0115
     12 C         141.0304  143.0337  169.3323 C.ar    1  UNL1        0.0589
     13 CL        140.4514  144.2551  169.9827 Cl      1  UNL1       -0.0822
     14 C         140.1778  142.1861  168.4353 C.ar    1  UNL1        0.0263
     15 C         138.1485  139.4893  162.5125 C.3     1  UNL1        0.0939
     16 C         137.4196  142.3350  163.5392 C.3     1  UNL1        0.0000
     17 C         138.4603  142.9956  162.6846 C.3     1  UNL1        0.0013
     18 C         138.2150  141.5161  162.7147 C.3     1  UNL1        0.0000
     19 C         138.2029  144.4135  163.1006 C.3     1  UNL1        0.0014
     20 C         139.1573  145.2966  162.3527 C.3     1  UNL1        0.0001
     21 C         140.0046  144.4244  161.4745 C.3     1  UNL1        0.0013
     22 C         139.5738  143.0023  161.6796 C.3     1  UNL1        0.0148
     23 C         140.4211  142.1300  160.8014 C.3     1  UNL1        0.0186
     24 C         139.9903  140.7079  161.0064 C.3     1  UNL1        0.0721
     25 N         138.8768  140.7012  162.0115 N.3     1  UNL1       -0.2725
     26 C         138.6194  142.1192  162.4275 C.3     1  UNL1        0.0575
     27 C         137.7721  142.9914  163.3057 C.3     1  UNL1        0.0160
@<TRIPOS>BOND
     1    16    17    1
     2    17    18    1
     3    17    19    1
     4    19    20    1
     5    20    21    1
     6    22    21    1
     7    22    23    1
     8    23    24    1
     9    24    25    1
    10    25    15    1
    11    15     1    1
    12     1     2    1
    13     2     3    1
    14     3     4    1
    15     4     5    1
    16     5     8    1
    17     8     9   ar
    18     9    10   ar
    19    10    11   ar
    20    11    12   ar
    21    12    13    1
    22    12    14   ar
    23     5     6   am
    24     6     7    2
    25    25    26    1
    26    26    27    1
    27    22    17    1
    28     6     2   am
    29    27    19    1
    30    26    22    1
    31    14     8   ar
@<TRIPOS>MOLECULE
*****
 27 31 0 0 0
SMALL
GASTEIGER

@<TRIPOS>ATOM
      1 C         144.1029  141.4199  163.7036 C.3     1  UNL1        0.1123
      2 N         143.5162  140.6540  164.8521 N.am    1  UNL1       -0.2606
      3 C         143.3334  139.1667  164.9182 C.3     1  UNL1        0.1169
      4 C         142.7135  138.8344  166.2432 C.3     1  UNL1        0.1212
      5 N         142.5133  140.1164  166.9958 N.am    1  UNL1       -0.2413
      6 C         143.0094  141.2410  166.1360 C.2     1  UNL1        0.3111
      7 O         143.0003  142.6969  166.4969 O.2     1  UNL1       -0.2520
      8 C         141.9209  140.2503  168.3673 C.ar    1  UNL1        0.0562
      9 C         142.8126  140.4920  169.5491 C.ar    1  UNL1        0.0150
     10 C         142.2203  140.6258  170.9207 C.ar    1  UNL1        0.0021
     11 C         140.7363  140.5180  171.1106 C.ar    1  UNL1        0.0115
     12 C         139.8446  140.2763  169.9288 C.ar    1  UNL1        0.0589
     13 CL        138.3606  140.1685  170.1187 Cl      1  UNL1       -0.0822
     14 C         140.4368  140.1424  168.5572 C.ar    1  UNL1        0.0263
     15 C         143.2283  142.3094  162.8704 C.3     1  UNL1        0.0939
     16 C         141.4571  144.5605  164.0863 C.3     1  UNL1        0.0000
     17 C         140.1868  143.8017  163.8410 C.3     1  UNL1        0.0013
     18 C         141.5509  143.2925  163.4811 C.3     1  UNL1        0.0000
     19 C         139.2290  144.8114  164.4007 C.3     1  UNL1        0.0014
     20 C         137.8410  144.2596  164.2633 C.3     1  UNL1        0.0001
     21 C         137.9408  142.9089  163.6186 C.3     1  UNL1        0.0013
     22 C         139.3906  142.6259  163.3577 C.3     1  UNL1        0.0148
     23 C         139.4905  141.2752  162.7130 C.3     1  UNL1        0.0186
     24 C         140.9403  140.9922  162.4520 C.3     1  UNL1        0.0721
     25 N         141.7364  142.1680  162.9354 N.3     1  UNL1       -0.2725
     26 C         140.7787  143.1777  163.4951 C.3     1  UNL1        0.0575
     27 C         140.6788  144.5284  164.1397 C.3     1  UNL1        0.0160
@<TRIPOS>BOND
     1    16    17    1
     2    17    18    1
     3    17    19    1
     4    19    20    1
     5    20    21    1
     6    22    21    1
     7    22    23    1
     8    23    24    1
     9    24    25    1
    10    25    15    1
    11    15     1    1
    12     1     2    1
    13     2     3    1
    14     3     4    1
    15     4     5    1
    16     5     8    1
    17     8     9   ar
    18     9    10   ar
    19    10    11   ar
    20    11    12   ar
    21    12    13    1
    22    12    14   ar
    23     5     6   am
    24     6     7    2
    25    25    26    1
    26    26    27    1
    27    22    17    1
    28     6     2   am
    29    27    19    1
    30    26    22    1
    31    14     8   ar
@<TRIPOS>MOLECULE
*****
 27 31 0 0 0
SMALL
GASTEIGER

@<TRIPOS>ATOM
      1 C         141.6850  141.8669  167.8983 C.3     1  UNL1        0.1123
      2 N         142.1295  142.4699  166.5987 N.am    1  UNL1       -0.2606
      3 C         143.5490  142.6332  166.1424 C.3     1  UNL1        0.1169
      4 C         143.5292  143.2796  164.7890 C.3     1  UNL1        0.1212
      5 N         142.0975  143.5157  164.4089 N.am    1  UNL1       -0.2413
      6 C         141.2324  143.0152  165.5274 C.2     1  UNL1        0.3111
      7 O         139.7334  143.0535  165.5675 O.2     1  UNL1       -0.2520
      8 C         141.6156  144.1423  163.1341 C.ar    1  UNL1        0.0562
      9 C         140.6101  145.2544  163.1783 C.ar    1  UNL1        0.0150
     10 C         140.1281  145.8810  161.9036 C.ar    1  UNL1        0.0021
     11 C         140.6517  145.3955  160.5845 C.ar    1  UNL1        0.0115
     12 C         141.6573  144.2834  160.5401 C.ar    1  UNL1        0.0589
     13 CL        142.1810  143.7978  159.2210 Cl      1  UNL1       -0.0822
     14 C         142.1393  143.6567  161.8149 C.ar    1  UNL1        0.0263
     15 C         141.4217  140.3930  167.9901 C.3     1  UNL1        0.0939
     16 C         138.9837  139.6332  166.2118 C.3     1  UNL1        0.0000
     17 C         139.8234  138.8218  165.2704 C.3     1  UNL1        0.0013
     18 C         140.3657  139.5444  166.4677 C.3     1  UNL1        0.0000
     19 C         138.7315  138.3876  164.3380 C.3     1  UNL1        0.0014
     20 C         139.3465  137.5321  163.2704 C.3     1  UNL1        0.0001
     21 C         140.8185  137.4375  163.5429 C.3     1  UNL1        0.0013
     22 C         141.1132  138.2346  164.7789 C.3     1  UNL1        0.0148
     23 C         142.5852  138.1400  165.0514 C.3     1  UNL1        0.0186
     24 C         142.8800  138.9371  166.2875 C.3     1  UNL1        0.0721
     25 N         141.5901  139.5242  166.7790 N.3     1  UNL1       -0.2725
     26 C         140.4982  139.0901  165.8466 C.3     1  UNL1        0.0575
     27 C         139.0262  139.1846  165.5741 C.3     1  UNL1        0.0160
@<TRIPOS>BOND
     1    16    17    1
     2    17    18    1
     3    17    19    1
     4    19    20    1
     5    20    21    1
     6    22    21    1
     7    22    23    1
     8    23    24    1
     9    24    25    1
    10    25    15    1
    11    15     1    1
    12     1     2    1
    13     2     3    1
    14     3     4    1
    15     4     5    1
    16     5     8    1
    17     8     9   ar
    18     9    10   ar
    19    10    11   ar
    20    11    12   ar
    21    12    13    1
    22    12    14   ar
    23     5     6   am
    24     6     7    2
    25    25    26    1
    26    26    27    1
    27    22    17    1
    28     6     2   am
    29    27    19    1
    30    26    22    1
    31    14     8   ar
