@<TRIPOS>MOLECULE
*****
 27 30 0 0 0
SMALL
GASTEIGER

@<TRIPOS>ATOM
      1 C         142.3840  137.7364  159.1757 C.3     1  UNL1        0.0523
      2 C         142.0612  137.9449  160.6257 C.ar    1  UNL1        0.0653
      3 C         143.1415  138.3520  161.5835 C.ar    1  UNL1        0.0490
      4 C         142.8187  138.5606  163.0334 C.ar    1  UNL1        0.1342
      5 N         141.4157  138.3621  163.5255 N.ar    1  UNL1       -0.1816
      6 N         140.8019  138.4934  164.8879 N.ar    1  UNL1       -0.1409
      7 C         139.3423  138.1675  164.7720 C.ar    1  UNL1        0.2227
      8 N         139.0541  137.8348  163.3381 N.ar    1  UNL1       -0.1880
      9 C         140.3355  137.9551  162.5677 C.ar    1  UNL1        0.2552
     10 N         140.6582  137.7465  161.1178 N.ar    1  UNL1       -0.2142
     11 C         138.3459  138.1734  165.8933 C.3     1  UNL1        0.3163
     12 C         137.3496  138.1792  167.0146 C.3     1  UNL1        0.0805
     13 F         138.4168  139.6706  165.9486 F       1  UNL1       -0.1962
     14 F         138.2750  136.6761  165.8381 F       1  UNL1       -0.1962
     15 N         143.8989  138.9676  163.9912 N.pl3   1  UNL1       -0.3192
     16 H         144.8293  138.6882  163.8315 H       1  UNL1        0.1482
     17 C         143.5615  139.8003  165.1924 C.3     1  UNL1        0.0750
     18 C         143.5450  141.2965  165.0872 C.3     1  UNL1        0.0245
     19 C         143.2077  142.1292  166.2883 C.3     1  UNL1        0.0278
     20 C         142.8868  141.4656  167.5948 C.ar    1  UNL1       -0.0255
     21 C         142.5494  142.2984  168.7960 C.ar    1  UNL1        0.0021
     22 C         142.2285  141.6348  170.1024 C.ar    1  UNL1        0.0342
     23 BR        141.8911  142.4675  171.3036 Br      1  UNL1       -0.0490
     24 C         142.2450  140.1386  170.2076 C.ar    1  UNL1        0.0064
     25 C         142.5824  139.3059  169.0065 C.ar    1  UNL1       -0.0040
     26 C         142.9033  139.9694  167.7000 C.ar    1  UNL1       -0.0245
     27 C         143.2406  139.1368  166.4989 C.3     1  UNL1        0.0455
@<TRIPOS>BOND
     1     1     2    1
     2     2     3   ar
     3     3     4   ar
     4     4    15    1
     5    15    17    1
     6    17    18    1
     7    18    19    1
     8    19    20    1
     9    20    21   ar
    10    21    22   ar
    11    22    23    1
    12    22    24   ar
    13    24    25   ar
    14    25    26   ar
    15    26    27    1
    16     4     5   ar
    17     5     6   ar
    18     6     7   ar
    19     7    11    1
    20    11    12    1
    21    11    13    1
    22    11    14    1
    23     7     8   ar
    24     8     9   ar
    25     9    10   ar
    26    10     2   ar
    27    27    17    1
    28     9     5   ar
    29    26    20   ar
    30    15    16    1
@<TRIPOS>MOLECULE
*****
 27 30 0 0 0
SMALL
GASTEIGER

@<TRIPOS>ATOM
      1 C         139.5121  140.4725  170.5303 C.3     1  UNL1        0.0523
      2 C         139.6395  140.4933  169.0359 C.ar    1  UNL1        0.0653
      3 C         140.5770  141.4610  168.3764 C.ar    1  UNL1        0.0490
      4 C         140.7043  141.4818  166.8820 C.ar    1  UNL1        0.1342
      5 N         139.8941  140.5350  166.0470 N.ar    1  UNL1       -0.1816
      6 N         139.8089  140.3256  164.5641 N.ar    1  UNL1       -0.1409
      7 C         138.8187  139.2286  164.3071 C.ar    1  UNL1        0.2227
      8 N         138.2920  138.7600  165.6311 N.ar    1  UNL1       -0.1880
      9 C         138.9567  139.5674  166.7064 C.ar    1  UNL1        0.2552
     10 N         138.8293  139.5465  168.2008 N.ar    1  UNL1       -0.2142
     11 C         138.4245  138.6940  162.9621 C.3     1  UNL1        0.3163
     12 C         138.0303  138.1594  161.6172 C.3     1  UNL1        0.0805
     13 F         137.6623  139.9556  162.6840 F       1  UNL1       -0.1962
     14 F         139.1867  137.4324  163.2402 F       1  UNL1       -0.1962
     15 N         141.6418  142.4494  166.2226 N.pl3   1  UNL1       -0.3192
     16 H         142.5187  142.6391  166.6279 H       1  UNL1        0.1482
     17 C         141.2431  143.1280  164.9456 C.3     1  UNL1        0.0750
     18 C         140.0606  144.0505  164.9240 C.3     1  UNL1        0.0245
     19 C         139.6620  144.7291  163.6471 C.3     1  UNL1        0.0278
     20 C         140.4460  144.4852  162.3917 C.ar    1  UNL1       -0.0255
     21 C         140.0474  145.1639  161.1148 C.ar    1  UNL1        0.0021
     22 C         140.8313  144.9200  159.8594 C.ar    1  UNL1        0.0342
     23 BR        140.4328  145.5986  158.5825 Br      1  UNL1       -0.0490
     24 C         142.0140  143.9974  159.8810 C.ar    1  UNL1        0.0064
     25 C         142.4125  143.3189  161.1580 C.ar    1  UNL1       -0.0040
     26 C         141.6286  143.5627  162.4133 C.ar    1  UNL1       -0.0245
     27 C         142.0271  142.8842  163.6902 C.3     1  UNL1        0.0455
@<TRIPOS>BOND
     1     1     2    1
     2     2     3   ar
     3     3     4   ar
     4     4    15    1
     5    15    17    1
     6    17    18    1
     7    18    19    1
     8    19    20    1
     9    20    21   ar
    10    21    22   ar
    11    22    23    1
    12    22    24   ar
    13    24    25   ar
    14    25    26   ar
    15    26    27    1
    16     4     5   ar
    17     5     6   ar
    18     6     7   ar
    19     7    11    1
    20    11    12    1
    21    11    13    1
    22    11    14    1
    23     7     8   ar
    24     8     9   ar
    25     9    10   ar
    26    10     2   ar
    27    27    17    1
    28     9     5   ar
    29    26    20   ar
    30    15    16    1
@<TRIPOS>MOLECULE
*****
 27 30 0 0 0
SMALL
GASTEIGER

@<TRIPOS>ATOM
      1 C         139.5641  138.7548  158.5961 C.3     1  UNL1        0.0523
      2 C         139.3917  139.3118  159.9782 C.ar    1  UNL1        0.0653
      3 C         139.3634  138.3891  161.1605 C.ar    1  UNL1        0.0490
      4 C         139.1910  138.9461  162.5426 C.ar    1  UNL1        0.1342
      5 N         139.0471  140.4258  162.7423 N.ar    1  UNL1       -0.1816
      6 N         138.8646  141.2589  163.9762 N.ar    1  UNL1       -0.1409
      7 C         138.7803  142.6965  163.5565 C.ar    1  UNL1        0.2227
      8 N         138.9106  142.7518  162.0632 N.ar    1  UNL1       -0.1880
      9 C         139.0755  141.3484  161.5600 C.ar    1  UNL1        0.2552
     10 N         139.2478  140.7914  160.1780 N.ar    1  UNL1       -0.2142
     11 C         138.5977  143.8724  164.4698 C.3     1  UNL1        0.3163
     12 C         138.4151  145.0482  165.3831 C.3     1  UNL1        0.0805
     13 F         137.4758  144.3687  163.6066 F       1  UNL1       -0.1962
     14 F         139.7195  143.3761  165.3330 F       1  UNL1       -0.1962
     15 N         139.1626  138.0234  163.7249 N.pl3   1  UNL1       -0.3192
     16 H         138.9917  137.0625  163.5954 H       1  UNL1        0.1482
     17 C         139.3946  138.5648  165.1045 C.3     1  UNL1        0.0750
     18 C         138.2415  138.7286  166.0496 C.3     1  UNL1        0.0245
     19 C         138.4735  139.2700  167.4291 C.3     1  UNL1        0.0278
     20 C         139.8587  139.6474  167.8635 C.ar    1  UNL1       -0.0255
     21 C         140.0908  140.1887  169.2431 C.ar    1  UNL1        0.0021
     22 C         141.4760  140.5662  169.6775 C.ar    1  UNL1        0.0342
     23 BR        141.7081  141.1075  171.0570 Br      1  UNL1       -0.0490
     24 C         142.6292  140.4022  168.7323 C.ar    1  UNL1        0.0064
     25 C         142.3971  139.8609  167.3528 C.ar    1  UNL1       -0.0040
     26 C         141.0119  139.4835  166.9184 C.ar    1  UNL1       -0.0245
     27 C         140.7799  138.9422  165.5389 C.3     1  UNL1        0.0455
@<TRIPOS>BOND
     1     1     2    1
     2     2     3   ar
     3     3     4   ar
     4     4    15    1
     5    15    17    1
     6    17    18    1
     7    18    19    1
     8    19    20    1
     9    20    21   ar
    10    21    22   ar
    11    22    23    1
    12    22    24   ar
    13    24    25   ar
    14    25    26   ar
    15    26    27    1
    16     4     5   ar
    17     5     6   ar
    18     6     7   ar
    19     7    11    1
    20    11    12    1
    21    11    13    1
    22    11    14    1
    23     7     8   ar
    24     8     9   ar
    25     9    10   ar
    26    10     2   ar
    27    27    17    1
    28     9     5   ar
    29    26    20   ar
    30    15    16    1
@<TRIPOS>MOLECULE
*****
 27 30 0 0 0
SMALL
GASTEIGER

@<TRIPOS>ATOM
      1 C         142.8507  138.3239  157.5740 C.3     1  UNL1        0.0523
      2 C         142.9675  139.0219  158.8966 C.ar    1  UNL1        0.0653
      3 C         142.9509  138.2267  160.1684 C.ar    1  UNL1        0.0490
      4 C         143.0678  138.9247  161.4909 C.ar    1  UNL1        0.1342
      5 N         143.2013  140.4179  161.5417 N.ar    1  UNL1       -0.1816
      6 N         143.3336  141.3753  162.6888 N.ar    1  UNL1       -0.1409
      7 C         143.4319  142.7622  162.1259 C.ar    1  UNL1        0.2227
      8 N         143.3604  142.6619  160.6310 N.ar    1  UNL1       -0.1880
      9 C         143.2178  141.2131  160.2699 C.ar    1  UNL1        0.2552
     10 N         143.1010  140.5151  158.9474 N.ar    1  UNL1       -0.2142
     11 C         143.5764  144.0273  162.9189 C.3     1  UNL1        0.3163
     12 C         143.7210  145.2923  163.7118 C.3     1  UNL1        0.0805
     13 F         142.4702  144.6530  162.1223 F       1  UNL1       -0.1962
     14 F         144.6827  143.4016  163.7155 F       1  UNL1       -0.1962
     15 N         143.0512  138.1295  162.7627 N.pl3   1  UNL1       -0.3192
     16 H         143.6105  137.3237  162.8467 H       1  UNL1        0.1482
     17 C         142.1825  138.5622  163.9065 C.3     1  UNL1        0.0750
     18 C         140.7091  138.7519  163.6993 C.3     1  UNL1        0.0245
     19 C         139.8405  139.1845  164.8430 C.3     1  UNL1        0.0278
     20 C         140.4453  139.4274  166.1940 C.ar    1  UNL1       -0.0255
     21 C         139.5765  139.8600  167.3379 C.ar    1  UNL1        0.0021
     22 C         140.1813  140.1030  168.6889 C.ar    1  UNL1        0.0342
     23 BR        139.3127  140.5356  169.8326 Br      1  UNL1       -0.0490
     24 C         141.6548  139.9132  168.8960 C.ar    1  UNL1        0.0064
     25 C         142.5235  139.4806  167.7523 C.ar    1  UNL1       -0.0040
     26 C         141.9187  139.2377  166.4013 C.ar    1  UNL1       -0.0245
     27 C         142.7873  138.8051  165.2575 C.3     1  UNL1        0.0455
@<TRIPOS>BOND
     1     1     2    1
     2     2     3   ar
     3     3     4   ar
     4     4    15    1
     5    15    17    1
     6    17    18    1
     7    18    19    1
     8    19    20    1
     9    20    21   ar
    10    21    22   ar
    11    22    23    1
    12    22    24   ar
    13    24    25   ar
    14    25    26   ar
    15    26    27    1
    16     4     5   ar
    17     5     6   ar
    18     6     7   ar
    19     7    11    1
    20    11    12    1
    21    11    13    1
    22    11    14    1
    23     7     8   ar
    24     8     9   ar
    25     9    10   ar
    26    10     2   ar
    27    27    17    1
    28     9     5   ar
    29    26    20   ar
    30    15    16    1
@<TRIPOS>MOLECULE
*****
 27 30 0 0 0
SMALL
GASTEIGER

@<TRIPOS>ATOM
      1 C         142.3670  143.6150  157.5663 C.3     1  UNL1        0.0523
      2 C         142.0621  143.6538  159.0345 C.ar    1  UNL1        0.0653
      3 C         143.1316  143.3191  160.0317 C.ar    1  UNL1        0.0490
      4 C         142.8267  143.3579  161.4999 C.ar    1  UNL1        0.1342
      5 N         141.4524  143.7314  161.9709 N.ar    1  UNL1       -0.1816
      6 N         140.8609  143.8543  163.3438 N.ar    1  UNL1       -0.1409
      7 C         139.4259  144.2650  163.1952 C.ar    1  UNL1        0.2227
      8 N         139.1305  144.3958  161.7304 N.ar    1  UNL1       -0.1880
      9 C         140.3830  144.0660  160.9737 C.ar    1  UNL1        0.2552
     10 N         140.6879  144.0272  159.5055 N.ar    1  UNL1       -0.2142
     11 C         138.4564  144.5030  164.3148 C.3     1  UNL1        0.3163
     12 C         137.4869  144.7410  165.4344 C.3     1  UNL1        0.0805
     13 F         139.5648  145.0640  165.1554 F       1  UNL1       -0.1962
     14 F         137.3480  143.9420  163.4743 F       1  UNL1       -0.1962
     15 N         143.8961  143.0232  162.4970 N.pl3   1  UNL1       -0.3192
     16 H         144.8064  143.3798  162.3809 H       1  UNL1        0.1482
     17 C         143.5786  142.1453  163.6712 C.3     1  UNL1        0.0750
     18 C         143.2637  140.6942  163.4592 C.3     1  UNL1        0.0245
     19 C         142.9461  139.8164  164.6333 C.3     1  UNL1        0.0278
     20 C         142.9436  140.3897  166.0194 C.ar    1  UNL1       -0.0255
     21 C         142.6260  139.5118  167.1935 C.ar    1  UNL1        0.0021
     22 C         142.6235  140.0851  168.5796 C.ar    1  UNL1        0.0342
     23 BR        142.3060  139.2073  169.7537 Br      1  UNL1       -0.0490
     24 C         142.9384  141.5363  168.7916 C.ar    1  UNL1        0.0064
     25 C         143.2559  142.4141  167.6175 C.ar    1  UNL1       -0.0040
     26 C         143.2585  141.8408  166.2314 C.ar    1  UNL1       -0.0245
     27 C         143.5760  142.7186  165.0573 C.3     1  UNL1        0.0455
@<TRIPOS>BOND
     1     1     2    1
     2     2     3   ar
     3     3     4   ar
     4     4    15    1
     5    15    17    1
     6    17    18    1
     7    18    19    1
     8    19    20    1
     9    20    21   ar
    10    21    22   ar
    11    22    23    1
    12    22    24   ar
    13    24    25   ar
    14    25    26   ar
    15    26    27    1
    16     4     5   ar
    17     5     6   ar
    18     6     7   ar
    19     7    11    1
    20    11    12    1
    21    11    13    1
    22    11    14    1
    23     7     8   ar
    24     8     9   ar
    25     9    10   ar
    26    10     2   ar
    27    27    17    1
    28     9     5   ar
    29    26    20   ar
    30    15    16    1
@<TRIPOS>MOLECULE
*****
 27 30 0 0 0
SMALL
GASTEIGER

@<TRIPOS>ATOM
      1 C         140.2403  138.2994  154.1226 C.3     1  UNL1        0.0523
      2 C         141.1055  137.5266  155.0736 C.ar    1  UNL1        0.0653
      3 C         141.7806  138.2298  156.2137 C.ar    1  UNL1        0.0490
      4 C         142.6458  137.4571  157.1647 C.ar    1  UNL1        0.1342
      5 N         142.8359  135.9812  156.9755 N.ar    1  UNL1       -0.1816
      6 N         143.6239  134.9638  157.7461 N.ar    1  UNL1       -0.1409
      7 C         143.4358  133.6319  157.0823 C.ar    1  UNL1        0.2227
      8 N         142.5315  133.8262  155.9014 N.ar    1  UNL1       -0.1880
      9 C         142.1607  135.2781  155.8354 C.ar    1  UNL1        0.2552
     10 N         141.2955  136.0508  154.8845 N.ar    1  UNL1       -0.2142
     11 C         144.0451  132.3337  157.5221 C.3     1  UNL1        0.3163
     12 C         144.6544  131.0355  157.9620 C.3     1  UNL1        0.0805
     13 F         145.1353  133.0843  158.2278 F       1  UNL1       -0.1962
     14 F         142.9549  131.5830  156.8165 F       1  UNL1       -0.1962
     15 N         143.3210  138.1601  158.3047 N.pl3   1  UNL1       -0.3192
     16 H         144.1593  138.6532  158.1519 H       1  UNL1        0.1482
     17 C         142.7188  138.1120  159.6778 C.3     1  UNL1        0.0750
     18 C         143.6069  138.0275  160.8837 C.3     1  UNL1        0.0245
     19 C         143.0048  137.9794  162.2566 C.3     1  UNL1        0.0278
     20 C         141.5146  138.0156  162.4237 C.ar    1  UNL1       -0.0255
     21 C         140.9125  137.9675  163.7968 C.ar    1  UNL1        0.0021
     22 C         139.4223  138.0037  163.9639 C.ar    1  UNL1        0.0342
     23 BR        138.8202  137.9556  165.3369 Br      1  UNL1       -0.0490
     24 C         138.5342  138.0881  162.7580 C.ar    1  UNL1        0.0064
     25 C         139.1363  138.1363  161.3850 C.ar    1  UNL1       -0.0040
     26 C         140.6265  138.1001  161.2179 C.ar    1  UNL1       -0.0245
     27 C         141.2286  138.1482  159.8449 C.3     1  UNL1        0.0455
@<TRIPOS>BOND
     1     1     2    1
     2     2     3   ar
     3     3     4   ar
     4     4    15    1
     5    15    17    1
     6    17    18    1
     7    18    19    1
     8    19    20    1
     9    20    21   ar
    10    21    22   ar
    11    22    23    1
    12    22    24   ar
    13    24    25   ar
    14    25    26   ar
    15    26    27    1
    16     4     5   ar
    17     5     6   ar
    18     6     7   ar
    19     7    11    1
    20    11    12    1
    21    11    13    1
    22    11    14    1
    23     7     8   ar
    24     8     9   ar
    25     9    10   ar
    26    10     2   ar
    27    27    17    1
    28     9     5   ar
    29    26    20   ar
    30    15    16    1
@<TRIPOS>MOLECULE
*****
 27 30 0 0 0
SMALL
GASTEIGER

@<TRIPOS>ATOM
      1 C         140.8141  142.1277  171.0308 C.3     1  UNL1        0.0523
      2 C         140.9165  141.6618  169.6087 C.ar    1  UNL1        0.0653
      3 C         142.0384  142.1472  168.7393 C.ar    1  UNL1        0.0490
      4 C         142.1407  141.6813  167.3172 C.ar    1  UNL1        0.1342
      5 N         141.1211  140.7300  166.7644 N.ar    1  UNL1       -0.1816
      6 N         140.9642  140.1019  165.4114 N.ar    1  UNL1       -0.1409
      7 C         139.7452  139.2283  165.4445 C.ar    1  UNL1        0.2227
      8 N         139.1489  139.3166  166.8180 N.ar    1  UNL1       -0.1880
      9 C         139.9992  140.2447  167.6338 C.ar    1  UNL1        0.2552
     10 N         139.8969  140.7106  169.0559 N.ar    1  UNL1       -0.2142
     11 C         139.2156  138.4101  164.3042 C.3     1  UNL1        0.3163
     12 C         138.6861  137.5920  163.1640 C.3     1  UNL1        0.0805
     13 F         139.0014  137.2528  165.2341 F       1  UNL1       -0.1962
     14 F         139.4299  139.5674  163.3743 F       1  UNL1       -0.1962
     15 N         143.2626  142.1666  166.4479 N.pl3   1  UNL1       -0.3192
     16 H         144.1824  142.1894  166.7982 H       1  UNL1        0.1482
     17 C         142.9832  142.6171  165.0446 C.3     1  UNL1        0.0750
     18 C         143.7800  142.0565  163.9042 C.3     1  UNL1        0.0245
     19 C         143.5005  142.5070  162.5010 C.3     1  UNL1        0.0278
     20 C         142.4242  143.5183  162.2384 C.ar    1  UNL1       -0.0255
     21 C         142.1448  143.9689  160.8351 C.ar    1  UNL1        0.0021
     22 C         141.0685  144.9801  160.5725 C.ar    1  UNL1        0.0342
     23 BR        140.7890  145.4307  159.1693 Br      1  UNL1       -0.0490
     24 C         140.2717  145.5408  161.7130 C.ar    1  UNL1        0.0064
     25 C         140.5511  145.0902  163.1161 C.ar    1  UNL1       -0.0040
     26 C         141.6274  144.0789  163.3788 C.ar    1  UNL1       -0.0245
     27 C         141.9069  143.6284  164.7819 C.3     1  UNL1        0.0455
@<TRIPOS>BOND
     1     1     2    1
     2     2     3   ar
     3     3     4   ar
     4     4    15    1
     5    15    17    1
     6    17    18    1
     7    18    19    1
     8    19    20    1
     9    20    21   ar
    10    21    22   ar
    11    22    23    1
    12    22    24   ar
    13    24    25   ar
    14    25    26   ar
    15    26    27    1
    16     4     5   ar
    17     5     6   ar
    18     6     7   ar
    19     7    11    1
    20    11    12    1
    21    11    13    1
    22    11    14    1
    23     7     8   ar
    24     8     9   ar
    25     9    10   ar
    26    10     2   ar
    27    27    17    1
    28     9     5   ar
    29    26    20   ar
    30    15    16    1
@<TRIPOS>MOLECULE
*****
 27 30 0 0 0
SMALL
GASTEIGER

@<TRIPOS>ATOM
      1 C         139.9422  145.9705  161.7629 C.3     1  UNL1        0.0523
      2 C         141.0792  145.0736  161.3720 C.ar    1  UNL1        0.0653
      3 C         142.0895  144.6529  162.3978 C.ar    1  UNL1        0.0490
      4 C         143.2265  143.7560  162.0069 C.ar    1  UNL1        0.1342
      5 N         143.3532  143.2798  160.5901 N.ar    1  UNL1       -0.1816
      6 N         144.3593  142.3959  159.9146 N.ar    1  UNL1       -0.1409
      7 C         143.9708  142.2703  158.4712 C.ar    1  UNL1        0.2227
      8 N         142.7246  143.0766  158.2547 N.ar    1  UNL1       -0.1880
      9 C         142.3429  143.7005  159.5643 C.ar    1  UNL1        0.2552
     10 N         141.2059  144.5974  159.9552 N.ar    1  UNL1       -0.2142
     11 C         144.7005  141.4775  157.4275 C.3     1  UNL1        0.3163
     12 C         145.4301  140.6848  156.3839 C.3     1  UNL1        0.0805
     13 F         145.5909  142.6538  157.1564 F       1  UNL1       -0.1962
     14 F         143.8101  140.3012  157.6986 F       1  UNL1       -0.1962
     15 N         144.2368  143.3353  163.0327 N.pl3   1  UNL1       -0.3192
     16 H         145.1593  143.6758  162.9836 H       1  UNL1        0.1482
     17 C         143.8417  142.3958  164.1333 C.3     1  UNL1        0.0750
     18 C         143.5303  140.9623  163.8200 C.3     1  UNL1        0.0245
     19 C         143.1352  140.0229  164.9205 C.3     1  UNL1        0.0278
     20 C         143.0515  140.5169  166.3344 C.ar    1  UNL1       -0.0255
     21 C         142.6563  139.5773  167.4349 C.ar    1  UNL1        0.0021
     22 C         142.5726  140.0713  168.8488 C.ar    1  UNL1        0.0342
     23 BR        142.1775  139.1318  169.9493 Br      1  UNL1       -0.0490
     24 C         142.8840  141.5048  169.1621 C.ar    1  UNL1        0.0064
     25 C         143.2792  142.4443  168.0615 C.ar    1  UNL1       -0.0040
     26 C         143.3629  141.9503  166.6477 C.ar    1  UNL1       -0.0245
     27 C         143.7580  142.8898  165.5471 C.3     1  UNL1        0.0455
@<TRIPOS>BOND
     1     1     2    1
     2     2     3   ar
     3     3     4   ar
     4     4    15    1
     5    15    17    1
     6    17    18    1
     7    18    19    1
     8    19    20    1
     9    20    21   ar
    10    21    22   ar
    11    22    23    1
    12    22    24   ar
    13    24    25   ar
    14    25    26   ar
    15    26    27    1
    16     4     5   ar
    17     5     6   ar
    18     6     7   ar
    19     7    11    1
    20    11    12    1
    21    11    13    1
    22    11    14    1
    23     7     8   ar
    24     8     9   ar
    25     9    10   ar
    26    10     2   ar
    27    27    17    1
    28     9     5   ar
    29    26    20   ar
    30    15    16    1
@<TRIPOS>MOLECULE
*****
 27 30 0 0 0
SMALL
GASTEIGER

@<TRIPOS>ATOM
      1 C         140.2733  140.0088  169.2491 C.3     1  UNL1        0.0523
      2 C         139.9545  140.5369  167.8819 C.ar    1  UNL1        0.0653
      3 C         139.2563  139.6615  166.8837 C.ar    1  UNL1        0.0490
      4 C         138.9375  140.1897  165.5164 C.ar    1  UNL1        0.1342
      5 N         139.3170  141.5933  165.1473 N.ar    1  UNL1       -0.1816
      6 N         139.1345  142.3834  163.8855 N.ar    1  UNL1       -0.1409
      7 C         139.7199  143.7471  164.1037 C.ar    1  UNL1        0.2227
      8 N         140.2642  143.7997  165.5005 N.ar    1  UNL1       -0.1880
      9 C         140.0152  142.4686  166.1455 C.ar    1  UNL1        0.2552
     10 N         140.3339  141.9404  167.5128 N.ar    1  UNL1       -0.2142
     11 C         139.7549  144.8623  163.1012 C.3     1  UNL1        0.3163
     12 C         139.7899  145.9775  162.0987 C.3     1  UNL1        0.0805
     13 F         141.0981  145.2849  163.6181 F       1  UNL1       -0.1962
     14 F         138.4117  144.4397  162.5843 F       1  UNL1       -0.1962
     15 N         138.2394  139.3144  164.5183 N.pl3   1  UNL1       -0.3192
     16 H         137.3949  138.8694  164.7594 H       1  UNL1        0.1482
     17 C         138.8278  139.1170  163.1527 C.3     1  UNL1        0.0750
     18 C         137.9997  139.3910  161.9324 C.3     1  UNL1        0.0245
     19 C         138.5881  139.1936  160.5669 C.3     1  UNL1        0.0278
     20 C         140.0047  138.7222  160.4216 C.ar    1  UNL1       -0.0255
     21 C         140.5931  138.5248  159.0560 C.ar    1  UNL1        0.0021
     22 C         142.0097  138.0535  158.9107 C.ar    1  UNL1        0.0342
     23 BR        142.5982  137.8561  157.5452 Br      1  UNL1       -0.0490
     24 C         142.8379  137.7795  160.1311 C.ar    1  UNL1        0.0064
     25 C         142.2494  137.9769  161.4966 C.ar    1  UNL1       -0.0040
     26 C         140.8328  138.4482  161.6419 C.ar    1  UNL1       -0.0245
     27 C         140.2444  138.6456  163.0074 C.3     1  UNL1        0.0455
@<TRIPOS>BOND
     1     1     2    1
     2     2     3   ar
     3     3     4   ar
     4     4    15    1
     5    15    17    1
     6    17    18    1
     7    18    19    1
     8    19    20    1
     9    20    21   ar
    10    21    22   ar
    11    22    23    1
    12    22    24   ar
    13    24    25   ar
    14    25    26   ar
    15    26    27    1
    16     4     5   ar
    17     5     6   ar
    18     6     7   ar
    19     7    11    1
    20    11    12    1
    21    11    13    1
    22    11    14    1
    23     7     8   ar
    24     8     9   ar
    25     9    10   ar
    26    10     2   ar
    27    27    17    1
    28     9     5   ar
    29    26    20   ar
    30    15    16    1
