@<TRIPOS>MOLECULE
*****
 22 22 0 0 0
SMALL
GASTEIGER

@<TRIPOS>ATOM
      1 C         137.4455  141.7803  163.2653 C.3     1  UNL1        0.0721
      2 N         138.4864  140.7703  162.8830 N.3     1  UNL1       -0.2727
      3 C         139.8579  141.2231  162.4782 C.3     1  UNL1        0.0721
      4 C         140.5725  140.5367  161.3520 C.3     1  UNL1        0.0188
      5 C         138.1559  139.3073  162.9055 C.3     1  UNL1        0.0721
      6 C         138.7704  138.4153  163.9431 C.3     1  UNL1        0.0173
      7 C         139.9575  137.5671  163.5951 C.3     1  UNL1        0.0014
      8 C         141.0678  137.3874  164.5876 C.3     1  UNL1        0.0000
      9 C         141.9608  138.5425  164.9314 C.3     1  UNL1        0.0000
     10 C         142.9902  139.0555  167.2610 C.3     1  UNL1        0.0000
     11 C         143.0648  138.3653  165.9313 C.3     1  UNL1        0.0000
     12 C         137.7764  143.2432  163.2441 C.3     1  UNL1        0.0173
     13 C         137.8694  144.0099  164.5300 C.3     1  UNL1        0.0018
     14 C         139.2118  144.3855  165.0839 C.3     1  UNL1        0.0047
     15 C         140.2436  143.3257  165.3329 C.3     1  UNL1        0.0264
     16 C         140.1422  142.4507  166.5471 C.ar    1  UNL1       -0.0221
     17 C         139.6595  141.0368  166.4144 C.ar    1  UNL1       -0.0034
     18 C         139.5580  140.1618  167.6286 C.ar    1  UNL1        0.0111
     19 C         139.9392  140.7009  168.9755 C.ar    1  UNL1        0.0577
     20 CL        139.8377  139.8260  170.1896 Cl      1  UNL1       -0.0822
     21 C         140.4219  142.1149  169.1081 C.ar    1  UNL1        0.0111
     22 C         140.5233  142.9898  167.8940 C.ar    1  UNL1       -0.0034
@<TRIPOS>BOND
     1    10    11    1
     2    11     9    1
     3     9     8    1
     4     8     7    1
     5     7     6    1
     6     6     5    1
     7     5     2    1
     8     2     3    1
     9     3     4    1
    10     2     1    1
    11     1    12    1
    12    12    13    1
    13    13    14    1
    14    14    15    1
    15    15    16    1
    16    16    17   ar
    17    17    18   ar
    18    18    19   ar
    19    19    20    1
    20    19    21   ar
    21    21    22   ar
    22    22    16   ar
@<TRIPOS>MOLECULE
*****
 22 22 0 0 0
SMALL
GASTEIGER

@<TRIPOS>ATOM
      1 C         140.5551  142.7874  166.2154 C.3     1  UNL1        0.0721
      2 N         140.6378  143.2805  164.8013 N.3     1  UNL1       -0.2727
      3 C         139.6666  144.3120  164.3086 C.3     1  UNL1        0.0721
      4 C         138.5981  144.8334  165.2232 C.3     1  UNL1        0.0188
      5 C         141.6919  142.7421  163.8796 C.3     1  UNL1        0.0721
      6 C         141.3861  141.5715  162.9931 C.3     1  UNL1        0.0173
      7 C         141.6670  140.1769  163.4687 C.3     1  UNL1        0.0014
      8 C         143.0482  139.6055  163.3426 C.3     1  UNL1        0.0000
      9 C         144.0503  139.8167  164.4386 C.3     1  UNL1        0.0000
     10 C         145.4109  141.9185  163.7448 C.3     1  UNL1        0.0000
     11 C         145.3656  140.4711  164.1363 C.3     1  UNL1        0.0000
     12 C         141.5304  141.7606  166.7100 C.3     1  UNL1        0.0173
     13 C         141.0389  140.4210  167.1726 C.3     1  UNL1        0.0018
     14 C         139.6012  140.2430  167.5618 C.3     1  UNL1        0.0047
     15 C         138.7567  139.2183  166.8642 C.3     1  UNL1        0.0264
     16 C         138.5308  139.3140  165.3844 C.ar    1  UNL1       -0.0221
     17 C         138.0429  140.5979  164.7817 C.ar    1  UNL1       -0.0034
     18 C         137.8170  140.6936  163.3019 C.ar    1  UNL1        0.0111
     19 C         138.0790  139.5053  162.4248 C.ar    1  UNL1        0.0577
     20 CL        137.8531  139.6010  160.9450 Cl      1  UNL1       -0.0822
     21 C         138.5670  138.2214  163.0275 C.ar    1  UNL1        0.0111
     22 C         138.7929  138.1257  164.5073 C.ar    1  UNL1       -0.0034
@<TRIPOS>BOND
     1    10    11    1
     2    11     9    1
     3     9     8    1
     4     8     7    1
     5     7     6    1
     6     6     5    1
     7     5     2    1
     8     2     3    1
     9     3     4    1
    10     2     1    1
    11     1    12    1
    12    12    13    1
    13    13    14    1
    14    14    15    1
    15    15    16    1
    16    16    17   ar
    17    17    18   ar
    18    18    19   ar
    19    19    20    1
    20    19    21   ar
    21    21    22   ar
    22    22    16   ar
@<TRIPOS>MOLECULE
*****
 22 22 0 0 0
SMALL
GASTEIGER

@<TRIPOS>ATOM
      1 C         144.5388  140.5435  162.6139 C.3     1  UNL1        0.0721
      2 N         144.1408  141.8610  163.2103 N.3     1  UNL1       -0.2727
      3 C         144.9265  142.4357  164.3515 C.3     1  UNL1        0.0721
      4 C         144.3782  143.5937  165.1317 C.3     1  UNL1        0.0188
      5 C         142.9569  142.6039  162.6655 C.3     1  UNL1        0.0721
      6 C         141.5832  142.0126  162.7793 C.3     1  UNL1        0.0173
      7 C         140.7511  142.2781  163.9988 C.3     1  UNL1        0.0014
      8 C         140.6264  143.6745  164.5322 C.3     1  UNL1        0.0000
      9 C         139.3788  144.0939  165.2517 C.3     1  UNL1        0.0000
     10 C         137.7640  144.2353  163.2213 C.3     1  UNL1        0.0000
     11 C         138.0352  143.8292  164.6396 C.3     1  UNL1        0.0000
     12 C         144.2823  139.2715  163.3664 C.3     1  UNL1        0.0173
     13 C         143.1291  138.3924  162.9823 C.3     1  UNL1        0.0018
     14 C         141.9000  138.3497  163.8411 C.3     1  UNL1        0.0047
     15 C         142.0301  138.2928  165.3344 C.3     1  UNL1        0.0264
     16 C         141.6507  139.4819  166.1662 C.ar    1  UNL1       -0.0221
     17 C         142.7017  140.4610  166.5984 C.ar    1  UNL1       -0.0034
     18 C         142.3223  141.6501  167.4302 C.ar    1  UNL1        0.0111
     19 C         140.8919  141.8603  167.8298 C.ar    1  UNL1        0.0577
     20 CL        140.5125  143.0495  168.6617 Cl      1  UNL1       -0.0822
     21 C         139.8409  140.8813  167.3976 C.ar    1  UNL1        0.0111
     22 C         140.2203  139.6921  166.5658 C.ar    1  UNL1       -0.0034
@<TRIPOS>BOND
     1    10    11    1
     2    11     9    1
     3     9     8    1
     4     8     7    1
     5     7     6    1
     6     6     5    1
     7     5     2    1
     8     2     3    1
     9     3     4    1
    10     2     1    1
    11     1    12    1
    12    12    13    1
    13    13    14    1
    14    14    15    1
    15    15    16    1
    16    16    17   ar
    17    17    18   ar
    18    18    19   ar
    19    19    20    1
    20    19    21   ar
    21    21    22   ar
    22    22    16   ar
@<TRIPOS>MOLECULE
*****
 22 22 0 0 0
SMALL
GASTEIGER

@<TRIPOS>ATOM
      1 C         142.4399  139.4427  164.8935 C.3     1  UNL1        0.0721
      2 N         141.6685  138.5152  164.0021 N.3     1  UNL1       -0.2727
      3 C         141.7923  138.6316  162.5118 C.3     1  UNL1        0.0721
      4 C         140.9447  139.6173  161.7635 C.3     1  UNL1        0.0188
      5 C         140.7731  137.4713  164.6011 C.3     1  UNL1        0.0721
      6 C         139.2832  137.6202  164.5118 C.3     1  UNL1        0.0173
      7 C         138.5234  138.2499  165.6414 C.3     1  UNL1        0.0014
      8 C         138.3517  139.7393  165.6917 C.3     1  UNL1        0.0000
      9 C         138.6928  140.5744  164.4933 C.3     1  UNL1        0.0000
     10 C         137.7455  141.6430  162.3228 C.3     1  UNL1        0.0000
     11 C         137.6186  141.3482  163.7882 C.3     1  UNL1        0.0000
     12 C         142.4558  139.2173  166.3764 C.3     1  UNL1        0.0173
     13 C         141.5955  140.0585  167.2721 C.3     1  UNL1        0.0018
     14 C         141.8276  141.5377  167.3619 C.3     1  UNL1        0.0047
     15 C         140.6650  142.4839  167.3094 C.3     1  UNL1        0.0264
     16 C         140.3442  143.2080  166.0355 C.ar    1  UNL1       -0.0221
     17 C         141.2304  143.0447  164.8364 C.ar    1  UNL1       -0.0034
     18 C         140.9096  143.7687  163.5624 C.ar    1  UNL1        0.0111
     19 C         139.7026  144.6561  163.4876 C.ar    1  UNL1        0.0577
     20 CL        139.3819  145.3802  162.2137 Cl      1  UNL1       -0.0822
     21 C         138.8164  144.8195  164.6867 C.ar    1  UNL1        0.0111
     22 C         139.1372  144.0954  165.9606 C.ar    1  UNL1       -0.0034
@<TRIPOS>BOND
     1    10    11    1
     2    11     9    1
     3     9     8    1
     4     8     7    1
     5     7     6    1
     6     6     5    1
     7     5     2    1
     8     2     3    1
     9     3     4    1
    10     2     1    1
    11     1    12    1
    12    12    13    1
    13    13    14    1
    14    14    15    1
    15    15    16    1
    16    16    17   ar
    17    17    18   ar
    18    18    19   ar
    19    19    20    1
    20    19    21   ar
    21    21    22   ar
    22    22    16   ar
@<TRIPOS>MOLECULE
*****
 22 22 0 0 0
SMALL
GASTEIGER

@<TRIPOS>ATOM
      1 C         140.8228  143.0597  162.6381 C.3     1  UNL1        0.0721
      2 N         139.8058  143.2521  163.7237 N.3     1  UNL1       -0.2727
      3 C         139.8221  144.5013  164.5539 C.3     1  UNL1        0.0721
      4 C         138.6415  144.8467  165.4124 C.3     1  UNL1        0.0188
      5 C         138.7724  142.1952  163.9792 C.3     1  UNL1        0.0721
      6 C         139.1965  140.8099  164.3678 C.3     1  UNL1        0.0173
      7 C         138.5804  140.1443  165.5624 C.3     1  UNL1        0.0014
      8 C         138.9687  138.7408  165.9224 C.3     1  UNL1        0.0000
      9 C         139.4068  137.7858  164.8519 C.3     1  UNL1        0.0000
     10 C         141.5821  137.7345  163.4323 C.3     1  UNL1        0.0000
     11 C         140.8575  137.4320  164.7104 C.3     1  UNL1        0.0000
     12 C         142.2667  142.8571  162.9904 C.3     1  UNL1        0.0173
     13 C         142.7644  141.4906  163.3580 C.3     1  UNL1        0.0018
     14 C         143.6075  141.3044  164.5846 C.3     1  UNL1        0.0047
     15 C         143.2238  140.2791  165.6099 C.3     1  UNL1        0.0264
     16 C         142.2733  140.6404  166.7127 C.ar    1  UNL1       -0.0221
     17 C         141.6217  141.9914  166.7286 C.ar    1  UNL1       -0.0034
     18 C         140.6713  142.3527  167.8314 C.ar    1  UNL1        0.0111
     19 C         140.3725  141.3631  168.9182 C.ar    1  UNL1        0.0577
     20 CL        139.4220  141.7244  170.0210 Cl      1  UNL1       -0.0822
     21 C         141.0241  140.0121  168.9023 C.ar    1  UNL1        0.0111
     22 C         141.9745  139.6508  167.7995 C.ar    1  UNL1       -0.0034
@<TRIPOS>BOND
     1    10    11    1
     2    11     9    1
     3     9     8    1
     4     8     7    1
     5     7     6    1
     6     6     5    1
     7     5     2    1
     8     2     3    1
     9     3     4    1
    10     2     1    1
    11     1    12    1
    12    12    13    1
    13    13    14    1
    14    14    15    1
    15    15    16    1
    16    16    17   ar
    17    17    18   ar
    18    18    19   ar
    19    19    20    1
    20    19    21   ar
    21    21    22   ar
    22    22    16   ar
@<TRIPOS>MOLECULE
*****
 22 22 0 0 0
SMALL
GASTEIGER

@<TRIPOS>ATOM
      1 C         140.4631  141.0690  162.3285 C.3     1  UNL1        0.0721
      2 N         139.0685  141.2979  162.8310 N.3     1  UNL1       -0.2727
      3 C         138.2386  142.4093  162.2600 C.3     1  UNL1        0.0721
      4 C         137.7326  143.5028  163.1535 C.3     1  UNL1        0.0188
      5 C         138.5038  140.4155  163.9046 C.3     1  UNL1        0.0721
      6 C         138.6329  138.9251  163.7954 C.3     1  UNL1        0.0173
      7 C         139.2510  138.1418  164.9153 C.3     1  UNL1        0.0014
      8 C         140.5221  137.3794  164.6851 C.3     1  UNL1        0.0000
      9 C         141.7916  138.1148  164.3724 C.3     1  UNL1        0.0000
     10 C         143.6039  138.2771  166.2269 C.3     1  UNL1        0.0000
     11 C         142.4864  138.9008  165.4444 C.3     1  UNL1        0.0000
     12 C         141.6234  141.7366  163.0053 C.3     1  UNL1        0.0173
     13 C         141.5372  143.1849  163.3866 C.3     1  UNL1        0.0018
     14 C         141.4789  143.5774  164.8331 C.3     1  UNL1        0.0047
     15 C         140.4572  142.9557  165.7384 C.3     1  UNL1        0.0264
     16 C         140.8875  141.9951  166.8071 C.ar    1  UNL1       -0.0221
     17 C         139.9383  140.9409  167.2944 C.ar    1  UNL1       -0.0034
     18 C         140.3686  139.9803  168.3631 C.ar    1  UNL1        0.0111
     19 C         141.7481  140.0740  168.9445 C.ar    1  UNL1        0.0577
     20 CL        142.1785  139.1134  170.0132 Cl      1  UNL1       -0.0822
     21 C         142.6973  141.1282  168.4572 C.ar    1  UNL1        0.0111
     22 C         142.2670  142.0888  167.3885 C.ar    1  UNL1       -0.0034
@<TRIPOS>BOND
     1    10    11    1
     2    11     9    1
     3     9     8    1
     4     8     7    1
     5     7     6    1
     6     6     5    1
     7     5     2    1
     8     2     3    1
     9     3     4    1
    10     2     1    1
    11     1    12    1
    12    12    13    1
    13    13    14    1
    14    14    15    1
    15    15    16    1
    16    16    17   ar
    17    17    18   ar
    18    18    19   ar
    19    19    20    1
    20    19    21   ar
    21    21    22   ar
    22    22    16   ar
@<TRIPOS>MOLECULE
*****
 22 22 0 0 0
SMALL
GASTEIGER

@<TRIPOS>ATOM
      1 C         137.7332  140.5412  161.9532 C.3     1  UNL1        0.0721
      2 N         138.9443  139.6570  161.9908 N.3     1  UNL1       -0.2727
      3 C         140.2849  140.2042  161.5991 C.3     1  UNL1        0.0721
      4 C         141.1188  140.9386  162.6067 C.3     1  UNL1        0.0188
      5 C         138.8148  138.2256  162.4203 C.3     1  UNL1        0.0721
      6 C         138.8977  137.8686  163.8748 C.3     1  UNL1        0.0173
      7 C         140.2284  137.8450  164.5666 C.3     1  UNL1        0.0014
      8 C         140.4895  138.7656  165.7218 C.3     1  UNL1        0.0000
      9 C         141.8907  139.2034  166.0301 C.3     1  UNL1        0.0000
     10 C         144.1174  139.2648  164.6930 C.3     1  UNL1        0.0000
     11 C         143.0537  138.4873  165.4099 C.3     1  UNL1        0.0000
     12 C         137.3932  141.3982  163.1363 C.3     1  UNL1        0.0173
     13 C         137.8645  142.8212  163.1919 C.3     1  UNL1        0.0018
     14 C         137.7354  143.6049  164.4644 C.3     1  UNL1        0.0047
     15 C         138.7966  144.5933  164.8474 C.3     1  UNL1        0.0264
     16 C         140.2417  144.1924  164.8156 C.ar    1  UNL1       -0.0221
     17 C         140.7324  143.0847  165.6999 C.ar    1  UNL1       -0.0034
     18 C         142.1775  142.6837  165.6680 C.ar    1  UNL1        0.0111
     19 C         143.1319  143.3905  164.7518 C.ar    1  UNL1        0.0577
     20 CL        144.5769  142.9896  164.7199 Cl      1  UNL1       -0.0822
     21 C         142.6412  144.4982  163.8674 C.ar    1  UNL1        0.0111
     22 C         141.1961  144.8992  163.8993 C.ar    1  UNL1       -0.0034
@<TRIPOS>BOND
     1    10    11    1
     2    11     9    1
     3     9     8    1
     4     8     7    1
     5     7     6    1
     6     6     5    1
     7     5     2    1
     8     2     3    1
     9     3     4    1
    10     2     1    1
    11     1    12    1
    12    12    13    1
    13    13    14    1
    14    14    15    1
    15    15    16    1
    16    16    17   ar
    17    17    18   ar
    18    18    19   ar
    19    19    20    1
    20    19    21   ar
    21    21    22   ar
    22    22    16   ar
@<TRIPOS>MOLECULE
*****
 22 22 0 0 0
SMALL
GASTEIGER

@<TRIPOS>ATOM
      1 C         141.6259  138.3744  163.1568 C.3     1  UNL1        0.0721
      2 N         142.5682  139.2609  163.9158 N.3     1  UNL1       -0.2727
      3 C         143.3715  138.7025  165.0528 C.3     1  UNL1        0.0721
      4 C         143.0437  139.0903  166.4643 C.3     1  UNL1        0.0188
      5 C         142.7072  140.7059  163.5378 C.3     1  UNL1        0.0721
      6 C         144.0454  141.2502  163.1342 C.3     1  UNL1        0.0173
      7 C         144.9158  141.9295  164.1495 C.3     1  UNL1        0.0014
      8 C         144.3016  142.8213  165.1876 C.3     1  UNL1        0.0000
      9 C         144.2916  144.3079  164.9883 C.3     1  UNL1        0.0000
     10 C         142.2157  145.2715  163.7586 C.3     1  UNL1        0.0000
     11 C         143.6678  144.8953  163.7572 C.3     1  UNL1        0.0000
     12 C         140.7577  137.3977  163.8932 C.3     1  UNL1        0.0173
     13 C         139.2863  137.6562  164.0289 C.3     1  UNL1        0.0018
     14 C         138.7203  138.0944  165.3471 C.3     1  UNL1        0.0047
     15 C         139.4151  139.1571  166.1456 C.3     1  UNL1        0.0264
     16 C         139.2608  140.6005  165.7677 C.ar    1  UNL1       -0.0221
     17 C         138.1474  141.0221  164.8554 C.ar    1  UNL1       -0.0034
     18 C         137.9930  142.4655  164.4775 C.ar    1  UNL1        0.0111
     19 C         138.9522  143.4874  165.0120 C.ar    1  UNL1        0.0577
     20 CL        138.7979  144.9308  164.6341 Cl      1  UNL1       -0.0822
     21 C         140.0657  143.0658  165.9244 C.ar    1  UNL1        0.0111
     22 C         140.2200  141.6224  166.3022 C.ar    1  UNL1       -0.0034
@<TRIPOS>BOND
     1    10    11    1
     2    11     9    1
     3     9     8    1
     4     8     7    1
     5     7     6    1
     6     6     5    1
     7     5     2    1
     8     2     3    1
     9     3     4    1
    10     2     1    1
    11     1    12    1
    12    12    13    1
    13    13    14    1
    14    14    15    1
    15    15    16    1
    16    16    17   ar
    17    17    18   ar
    18    18    19   ar
    19    19    20    1
    20    19    21   ar
    21    21    22   ar
    22    22    16   ar
@<TRIPOS>MOLECULE
*****
 22 22 0 0 0
SMALL
GASTEIGER

@<TRIPOS>ATOM
      1 C         137.9299  140.1585  162.9253 C.3     1  UNL1        0.0721
      2 N         139.0052  139.4044  163.6498 N.3     1  UNL1       -0.2727
      3 C         138.6936  138.7105  164.9427 C.3     1  UNL1        0.0721
      4 C         138.5318  139.5089  166.2023 C.3     1  UNL1        0.0188
      5 C         140.3921  139.3441  163.0816 C.3     1  UNL1        0.0721
      6 C         141.2447  140.5777  163.0519 C.3     1  UNL1        0.0173
      7 C         142.6752  140.4903  162.6090 C.3     1  UNL1        0.0014
      8 C         143.5516  139.3844  163.1180 C.3     1  UNL1        0.0000
      9 C         144.0794  139.4313  164.5213 C.3     1  UNL1        0.0000
     10 C         142.2765  139.0362  166.3500 C.3     1  UNL1        0.0000
     11 C         143.4725  138.5594  165.5803 C.3     1  UNL1        0.0000
     12 C         137.4846  141.4994  163.4290 C.3     1  UNL1        0.0173
     13 C         138.0355  142.7521  162.8147 C.3     1  UNL1        0.0018
     14 C         137.7739  144.0812  163.4591 C.3     1  UNL1        0.0047
     15 C         138.5629  144.4985  164.6646 C.3     1  UNL1        0.0264
     16 C         139.9981  144.0846  164.8017 C.ar    1  UNL1       -0.0221
     17 C         141.0494  144.7286  163.9473 C.ar    1  UNL1       -0.0034
     18 C         142.4846  144.3147  164.0845 C.ar    1  UNL1        0.0111
     19 C         142.8686  143.2568  165.0761 C.ar    1  UNL1        0.0577
     20 CL        144.3038  142.8429  165.2133 Cl      1  UNL1       -0.0822
     21 C         141.8173  142.6129  165.9305 C.ar    1  UNL1        0.0111
     22 C         140.3821  143.0267  165.7934 C.ar    1  UNL1       -0.0034
@<TRIPOS>BOND
     1    10    11    1
     2    11     9    1
     3     9     8    1
     4     8     7    1
     5     7     6    1
     6     6     5    1
     7     5     2    1
     8     2     3    1
     9     3     4    1
    10     2     1    1
    11     1    12    1
    12    12    13    1
    13    13    14    1
    14    14    15    1
    15    15    16    1
    16    16    17   ar
    17    17    18   ar
    18    18    19   ar
    19    19    20    1
    20    19    21   ar
    21    21    22   ar
    22    22    16   ar
