@<TRIPOS>MOLECULE
*****
 34 36 0 0 0
SMALL
GASTEIGER

@<TRIPOS>ATOM
      1 N         138.1943  139.5622  163.3531 N.3     1  UNL1       -0.2721
      2 C         138.6628  139.8430  164.7501 C.3     1  UNL1        0.0610
      3 C         138.2039  138.9746  165.8838 C.3     1  UNL1        0.0375
      4 C         138.6723  139.2554  167.2808 C.3     1  UNL1        0.0950
      5 N         139.5996  140.4046  167.5442 N.pl3   1  UNL1       -0.2785
      6 C         140.0585  141.2731  166.4105 C.3     1  UNL1        0.0950
      7 C         139.5901  140.9923  165.0134 C.3     1  UNL1        0.0375
      8 C         140.0680  140.6855  168.9412 C.ar    1  UNL1        0.2163
      9 N         141.1027  141.6966  169.3377 N.ar    1  UNL1       -0.1804
     10 C         141.2581  141.6405  170.8287 C.ar    1  UNL1        0.2331
     11 N         142.1887  142.4824  171.6503 N.pl3   1  UNL1       -0.3262
     12 N         140.3195  140.5947  171.3535 N.ar    1  UNL1       -0.1354
     13 N         139.5841  140.0045  170.1871 N.ar    1  UNL1       -0.2450
     14 H         142.7692  143.1458  171.2118 H       1  UNL1        0.1452
     15 H         142.2190  142.3716  172.6281 H       1  UNL1        0.1452
     16 H         138.9032  139.2948  170.2314 H       1  UNL1        0.1919
     17 C         137.4612  140.6189  162.5812 C.3     1  UNL1        0.0936
     18 C         138.1752  141.4050  161.5219 C.3     1  UNL1        0.1082
     19 C         140.0600  146.2188  162.0469 C.3     1  UNL1        0.1122
     20 N         138.9289  145.2974  161.6977 N.am    1  UNL1       -0.2872
     21 C         139.1176  143.8119  161.7844 C.2     1  UNL1        0.3008
     22 O         140.4373  143.2476  162.2202 O.2     1  UNL1       -0.2528
     23 N         137.9865  142.8906  161.4353 N.am    1  UNL1       -0.2875
     24 H         138.0627  145.6678  161.4117 H       1  UNL1        0.1510
     25 H         137.1204  143.2610  161.1492 H       1  UNL1        0.1510
     26 C         138.4591  138.2246  162.7279 C.3     1  UNL1        0.0768
     27 C         139.7788  137.9528  162.0687 C.3     1  UNL1        0.0437
     28 C         141.0359  138.5438  162.6350 C.ar    1  UNL1       -0.0207
     29 C         141.6369  139.7677  162.0101 C.ar    1  UNL1       -0.0034
     30 C         142.8939  140.3587  162.5763 C.ar    1  UNL1        0.0111
     31 C         143.5498  139.7256  163.7676 C.ar    1  UNL1        0.0577
     32 CL        144.8069  140.3166  164.3338 Cl      1  UNL1       -0.0822
     33 C         142.9488  138.5017  164.3925 C.ar    1  UNL1        0.0111
     34 C         141.6918  137.9107  163.8262 C.ar    1  UNL1       -0.0034
@<TRIPOS>BOND
     1    19    20    1
     2    20    21   am
     3    21    22    2
     4    21    23   am
     5    23    18    1
     6    18    17    1
     7    17     1    1
     8     1    26    1
     9    26    27    1
    10    27    28    1
    11    28    29   ar
    12    29    30   ar
    13    30    31   ar
    14    31    32    1
    15    31    33   ar
    16    33    34   ar
    17     1     2    1
    18     2     3    1
    19     3     4    1
    20     4     5    1
    21     5     8    1
    22     8     9   ar
    23     9    10   ar
    24    10    11    1
    25    10    12   ar
    26    12    13   ar
    27     5     6    1
    28     6     7    1
    29    34    28   ar
    30     7     2    1
    31    13     8   ar
    32    20    24    1
    33    23    25    1
    34    11    14    1
    35    11    15    1
    36    13    16    1
@<TRIPOS>MOLECULE
*****
 34 36 0 0 0
SMALL
GASTEIGER

@<TRIPOS>ATOM
      1 N         138.5522  139.5130  164.1596 N.3     1  UNL1       -0.2721
      2 C         139.1601  140.0714  165.4120 C.3     1  UNL1        0.0610
      3 C         140.0587  141.2702  165.3397 C.3     1  UNL1        0.0375
      4 C         140.6666  141.8285  166.5922 C.3     1  UNL1        0.0950
      5 N         140.3758  141.1881  167.9170 N.pl3   1  UNL1       -0.2785
      6 C         139.4772  139.9892  167.9894 C.3     1  UNL1        0.0950
      7 C         138.8693  139.4308  166.7369 C.3     1  UNL1        0.0375
      8 C         140.9837  141.7465  169.1695 C.ar    1  UNL1        0.2163
      9 N         142.1303  142.7112  169.2389 N.ar    1  UNL1       -0.1804
     10 C         142.4069  142.9991  170.6848 C.ar    1  UNL1        0.2331
     11 N         143.4721  143.9133  171.2136 N.pl3   1  UNL1       -0.3262
     12 N         141.4314  142.2123  171.5090 N.ar    1  UNL1       -0.1354
     13 N         140.5518  141.4381  170.5725 N.ar    1  UNL1       -0.2450
     14 H         144.0671  144.3886  170.5897 H       1  UNL1        0.1452
     15 H         143.5761  144.0381  172.1846 H       1  UNL1        0.1452
     16 H         139.8196  140.8338  170.8330 H       1  UNL1        0.1919
     17 C         137.7052  140.3869  163.2829 C.3     1  UNL1        0.0936
     18 C         138.3399  141.1881  162.1851 C.3     1  UNL1        0.1082
     19 C         139.8851  146.1423  161.9219 C.3     1  UNL1        0.1122
     20 N         138.7861  145.1214  161.9028 N.am    1  UNL1       -0.2872
     21 C         139.1125  143.6652  162.0535 C.2     1  UNL1        0.3008
     22 O         140.5378  143.2297  162.2233 O.2     1  UNL1       -0.2528
     23 N         138.0136  142.6445  162.0344 N.am    1  UNL1       -0.2875
     24 H         137.8507  145.4073  161.7914 H       1  UNL1        0.1510
     25 H         137.0781  142.9303  161.9230 H       1  UNL1        0.1510
     26 C         138.7915  138.0806  163.7838 C.3     1  UNL1        0.0768
     27 C         140.0229  137.7025  163.0153 C.3     1  UNL1        0.0437
     28 C         141.3333  138.3632  163.3259 C.ar    1  UNL1       -0.0207
     29 C         142.0644  138.0216  164.5903 C.ar    1  UNL1       -0.0034
     30 C         143.3747  138.6823  164.9008 C.ar    1  UNL1        0.0111
     31 C         143.9539  139.6847  163.9470 C.ar    1  UNL1        0.0577
     32 CL        145.2642  140.3455  164.2577 Cl      1  UNL1       -0.0822
     33 C         143.2227  140.0264  162.6827 C.ar    1  UNL1        0.0111
     34 C         141.9124  139.3656  162.3721 C.ar    1  UNL1       -0.0034
@<TRIPOS>BOND
     1    19    20    1
     2    20    21   am
     3    21    22    2
     4    21    23   am
     5    23    18    1
     6    18    17    1
     7    17     1    1
     8     1    26    1
     9    26    27    1
    10    27    28    1
    11    28    29   ar
    12    29    30   ar
    13    30    31   ar
    14    31    32    1
    15    31    33   ar
    16    33    34   ar
    17     1     2    1
    18     2     3    1
    19     3     4    1
    20     4     5    1
    21     5     8    1
    22     8     9   ar
    23     9    10   ar
    24    10    11    1
    25    10    12   ar
    26    12    13   ar
    27     5     6    1
    28     6     7    1
    29    34    28   ar
    30     7     2    1
    31    13     8   ar
    32    20    24    1
    33    23    25    1
    34    11    14    1
    35    11    15    1
    36    13    16    1
@<TRIPOS>MOLECULE
*****
 34 36 0 0 0
SMALL
GASTEIGER

@<TRIPOS>ATOM
      1 N         140.2018  138.0222  164.3020 N.3     1  UNL1       -0.2721
      2 C         140.5226  138.8343  165.5217 C.3     1  UNL1        0.0610
      3 C         139.4205  139.5026  166.2890 C.3     1  UNL1        0.0375
      4 C         139.7413  140.3146  167.5087 C.3     1  UNL1        0.0950
      5 N         141.1642  140.4584  167.9611 N.pl3   1  UNL1       -0.2785
      6 C         142.2663  139.7900  167.1938 C.3     1  UNL1        0.0950
      7 C         141.9455  138.9780  165.9741 C.3     1  UNL1        0.0375
      8 C         141.4850  141.2704  169.1808 C.ar    1  UNL1        0.2163
      9 N         142.5454  142.3265  169.2831 N.ar    1  UNL1       -0.1804
     10 C         142.5174  142.8777  170.6779 C.ar    1  UNL1        0.2331
     11 N         143.4104  143.9552  171.2181 N.pl3   1  UNL1       -0.3262
     12 N         141.4399  142.1624  171.4376 N.ar    1  UNL1       -0.1354
     13 N         140.8018  141.1690  170.5123 N.ar    1  UNL1       -0.2450
     14 H         144.0917  144.3664  170.6385 H       1  UNL1        0.1452
     15 H         143.3151  144.2511  172.1522 H       1  UNL1        0.1452
     16 H         140.0641  140.5578  170.7392 H       1  UNL1        0.1919
     17 C         141.2964  137.3041  163.5699 C.3     1  UNL1        0.0936
     18 C         142.0369  137.9947  162.4633 C.3     1  UNL1        0.1082
     19 C         145.6287  141.6152  163.4591 C.3     1  UNL1        0.1122
     20 N         145.2698  140.1923  163.1480 N.am    1  UNL1       -0.2872
     21 C         143.8328  139.8050  162.9612 C.2     1  UNL1        0.3008
     22 O         142.7547  140.8404  163.0853 O.2     1  UNL1       -0.2528
     23 N         143.4740  138.3822  162.6502 N.am    1  UNL1       -0.2875
     24 H         145.9774  139.5127  163.0666 H       1  UNL1        0.1510
     25 H         144.1816  137.7026  162.5687 H       1  UNL1        0.1510
     26 C         138.7862  137.9283  163.8145 C.3     1  UNL1        0.0768
     27 C         138.3512  138.7203  162.6173 C.3     1  UNL1        0.0437
     28 C         138.4373  140.2177  162.6369 C.ar    1  UNL1       -0.0207
     29 C         137.4648  141.0141  163.4553 C.ar    1  UNL1       -0.0034
     30 C         137.5508  142.5115  163.4749 C.ar    1  UNL1        0.0111
     31 C         138.6094  143.2124  162.6761 C.ar    1  UNL1        0.0577
     32 CL        138.6954  144.7099  162.6957 Cl      1  UNL1       -0.0822
     33 C         139.5819  142.4160  161.8576 C.ar    1  UNL1        0.0111
     34 C         139.4958  140.9186  161.8380 C.ar    1  UNL1       -0.0034
@<TRIPOS>BOND
     1    19    20    1
     2    20    21   am
     3    21    22    2
     4    21    23   am
     5    23    18    1
     6    18    17    1
     7    17     1    1
     8     1    26    1
     9    26    27    1
    10    27    28    1
    11    28    29   ar
    12    29    30   ar
    13    30    31   ar
    14    31    32    1
    15    31    33   ar
    16    33    34   ar
    17     1     2    1
    18     2     3    1
    19     3     4    1
    20     4     5    1
    21     5     8    1
    22     8     9   ar
    23     9    10   ar
    24    10    11    1
    25    10    12   ar
    26    12    13   ar
    27     5     6    1
    28     6     7    1
    29    34    28   ar
    30     7     2    1
    31    13     8   ar
    32    20    24    1
    33    23    25    1
    34    11    14    1
    35    11    15    1
    36    13    16    1
@<TRIPOS>MOLECULE
*****
 34 36 0 0 0
SMALL
GASTEIGER

@<TRIPOS>ATOM
      1 N         140.6165  139.3630  162.1218 N.3     1  UNL1       -0.2721
      2 C         140.3666  139.4771  163.5964 C.3     1  UNL1        0.0610
      3 C         141.3315  140.2288  164.4646 C.3     1  UNL1        0.0375
      4 C         141.0817  140.3429  165.9393 C.3     1  UNL1        0.0950
      5 N         139.8670  139.7052  166.5457 N.pl3   1  UNL1       -0.2785
      6 C         138.9020  138.9534  165.6775 C.3     1  UNL1        0.0950
      7 C         139.1518  138.8393  164.2028 C.3     1  UNL1        0.0375
      8 C         139.6171  139.8193  168.0203 C.ar    1  UNL1        0.2163
      9 N         140.6101  140.2695  169.0506 N.ar    1  UNL1       -0.1804
     10 C         139.9371  140.2316  170.3906 C.ar    1  UNL1        0.2331
     11 N         140.5631  140.6023  171.7024 N.pl3   1  UNL1       -0.3262
     12 N         138.5282  139.7581  170.1886 N.ar    1  UNL1       -0.1354
     13 N         138.3305  139.5033  168.7237 N.ar    1  UNL1       -0.2450
     14 H         141.4999  140.9035  171.7331 H       1  UNL1        0.1452
     15 H         140.0372  140.5442  172.5327 H       1  UNL1        0.1452
     16 H         137.5017  139.1845  168.2985 H       1  UNL1        0.1919
     17 C         141.1692  138.0908  161.5509 C.3     1  UNL1        0.0936
     18 C         142.6436  137.9545  161.3116 C.3     1  UNL1        0.1082
     19 C         145.7466  141.4464  163.5874 C.3     1  UNL1        0.1122
     20 N         145.1674  140.0638  163.5323 N.am    1  UNL1       -0.2872
     21 C         144.1951  139.7005  162.4495 C.2     1  UNL1        0.3008
     22 O         143.8019  140.7198  161.4217 O.2     1  UNL1       -0.2528
     23 N         143.6160  138.3179  162.3945 N.am    1  UNL1       -0.2875
     24 H         145.4255  139.3948  164.2069 H       1  UNL1        0.1510
     25 H         143.8741  137.6489  163.0691 H       1  UNL1        0.1510
     26 C         140.3136  140.5213  161.2180 C.3     1  UNL1        0.0768
     27 C         139.0353  141.2882  161.3845 C.3     1  UNL1        0.0437
     28 C         138.8915  142.2713  162.5083 C.ar    1  UNL1       -0.0207
     29 C         137.6487  142.2738  163.3482 C.ar    1  UNL1       -0.0034
     30 C         137.5049  143.2569  164.4719 C.ar    1  UNL1        0.0111
     31 C         138.6039  144.2374  164.7559 C.ar    1  UNL1        0.0577
     32 CL        138.4601  145.2205  165.8797 Cl      1  UNL1       -0.0822
     33 C         139.8467  144.2350  163.9160 C.ar    1  UNL1        0.0111
     34 C         139.9905  143.2519  162.7923 C.ar    1  UNL1       -0.0034
@<TRIPOS>BOND
     1    19    20    1
     2    20    21   am
     3    21    22    2
     4    21    23   am
     5    23    18    1
     6    18    17    1
     7    17     1    1
     8     1    26    1
     9    26    27    1
    10    27    28    1
    11    28    29   ar
    12    29    30   ar
    13    30    31   ar
    14    31    32    1
    15    31    33   ar
    16    33    34   ar
    17     1     2    1
    18     2     3    1
    19     3     4    1
    20     4     5    1
    21     5     8    1
    22     8     9   ar
    23     9    10   ar
    24    10    11    1
    25    10    12   ar
    26    12    13   ar
    27     5     6    1
    28     6     7    1
    29    34    28   ar
    30     7     2    1
    31    13     8   ar
    32    20    24    1
    33    23    25    1
    34    11    14    1
    35    11    15    1
    36    13    16    1
@<TRIPOS>MOLECULE
*****
 34 36 0 0 0
SMALL
GASTEIGER

@<TRIPOS>ATOM
      1 N         139.5071  138.1107  162.7406 N.3     1  UNL1       -0.2721
      2 C         139.5088  138.6842  164.1267 C.3     1  UNL1        0.0610
      3 C         140.4994  139.7478  164.4971 C.3     1  UNL1        0.0375
      4 C         140.5011  140.3212  165.8832 C.3     1  UNL1        0.0950
      5 N         139.5120  139.8311  166.8988 N.pl3   1  UNL1       -0.2785
      6 C         138.5213  138.7674  166.5284 C.3     1  UNL1        0.0950
      7 C         138.5197  138.1939  165.1423 C.3     1  UNL1        0.0375
      8 C         139.5137  140.4045  168.2849 C.ar    1  UNL1        0.2163
      9 N         140.1457  141.6992  168.7027 N.ar    1  UNL1       -0.1804
     10 C         139.9062  141.8788  170.1725 C.ar    1  UNL1        0.2331
     11 N         140.3660  143.0384  171.0055 N.pl3   1  UNL1       -0.3262
     12 N         139.1262  140.6952  170.6631 N.ar    1  UNL1       -0.1354
     13 N         138.8836  139.7841  169.4965 N.ar    1  UNL1       -0.2450
     14 H         140.8750  143.7716  170.5901 H       1  UNL1        0.1452
     15 H         140.1588  143.0663  171.9675 H       1  UNL1        0.1452
     16 H         138.3964  138.9290  169.5216 H       1  UNL1        0.1919
     17 C         138.2307  138.0514  161.9550 C.3     1  UNL1        0.0936
     18 C         137.7471  139.2645  161.2172 C.3     1  UNL1        0.1082
     19 C         138.3759  144.0182  163.2190 C.3     1  UNL1        0.1122
     20 N         137.5154  142.8133  162.9784 N.am    1  UNL1       -0.2872
     21 C         138.0615  141.6413  162.2181 C.2     1  UNL1        0.3008
     22 O         139.4682  141.6741  161.6984 O.2     1  UNL1       -0.2528
     23 N         137.2009  140.4366  161.9775 N.am    1  UNL1       -0.2875
     24 H         136.5921  142.7918  163.3195 H       1  UNL1        0.1510
     25 H         136.2777  140.4151  162.3186 H       1  UNL1        0.1510
     26 C         140.7820  137.5966  162.1402 C.3     1  UNL1        0.0768
     27 C         141.6163  138.4912  161.2720 C.3     1  UNL1        0.0437
     28 C         142.7271  139.2986  161.8756 C.ar    1  UNL1       -0.0207
     29 C         143.0146  140.6790  161.3639 C.ar    1  UNL1       -0.0034
     30 C         144.1254  141.4863  161.9674 C.ar    1  UNL1        0.0111
     31 C         144.9487  140.9133  163.0827 C.ar    1  UNL1        0.0577
     32 CL        146.0595  141.7207  163.6863 Cl      1  UNL1       -0.0822
     33 C         144.6612  139.5329  163.5944 C.ar    1  UNL1        0.0111
     34 C         143.5504  138.7256  162.9908 C.ar    1  UNL1       -0.0034
@<TRIPOS>BOND
     1    19    20    1
     2    20    21   am
     3    21    22    2
     4    21    23   am
     5    23    18    1
     6    18    17    1
     7    17     1    1
     8     1    26    1
     9    26    27    1
    10    27    28    1
    11    28    29   ar
    12    29    30   ar
    13    30    31   ar
    14    31    32    1
    15    31    33   ar
    16    33    34   ar
    17     1     2    1
    18     2     3    1
    19     3     4    1
    20     4     5    1
    21     5     8    1
    22     8     9   ar
    23     9    10   ar
    24    10    11    1
    25    10    12   ar
    26    12    13   ar
    27     5     6    1
    28     6     7    1
    29    34    28   ar
    30     7     2    1
    31    13     8   ar
    32    20    24    1
    33    23    25    1
    34    11    14    1
    35    11    15    1
    36    13    16    1
@<TRIPOS>MOLECULE
*****
 34 36 0 0 0
SMALL
GASTEIGER

@<TRIPOS>ATOM
      1 N         142.1951  139.8737  162.0561 N.3     1  UNL1       -0.2721
      2 C         142.2980  139.9928  163.5478 C.3     1  UNL1        0.0610
      3 C         142.8088  138.8390  164.3589 C.3     1  UNL1        0.0375
      4 C         142.9117  138.9581  165.8506 C.3     1  UNL1        0.0950
      5 N         142.5039  140.2310  166.5313 N.pl3   1  UNL1       -0.2785
      6 C         141.9931  141.3849  165.7202 C.3     1  UNL1        0.0950
      7 C         141.8902  141.2658  164.2285 C.3     1  UNL1        0.0375
      8 C         142.6068  140.3501  168.0230 C.ar    1  UNL1        0.2163
      9 N         142.3533  141.5902  168.8280 N.ar    1  UNL1       -0.1804
     10 C         142.5712  141.2565  170.2742 C.ar    1  UNL1        0.2331
     11 N         142.4263  142.2030  171.4288 N.pl3   1  UNL1       -0.3262
     12 N         142.9593  139.8103  170.3629 N.ar    1  UNL1       -0.1354
     13 N         142.9813  139.2502  168.9716 N.ar    1  UNL1       -0.2450
     14 H         142.1659  143.1388  171.2686 H       1  UNL1        0.1452
     15 H         142.5916  141.8883  172.3469 H       1  UNL1        0.1452
     16 H         143.2027  138.3233  168.7244 H       1  UNL1        0.1919
     17 C         143.4339  139.6857  161.2315 C.3     1  UNL1        0.0936
     18 C         144.0329  140.8512  160.5016 C.3     1  UNL1        0.1082
     19 C         143.8857  145.2063  163.3321 C.3     1  UNL1        0.1122
     20 N         143.4256  144.4118  162.1458 N.am    1  UNL1       -0.2872
     21 C         143.9593  143.0288  161.9168 C.2     1  UNL1        0.3008
     22 O         144.9531  142.4403  162.8740 O.2     1  UNL1       -0.2528
     23 N         143.4992  142.2343  160.7307 N.am    1  UNL1       -0.2875
     24 H         142.7734  144.7980  161.5176 H       1  UNL1        0.1510
     25 H         142.8470  142.6205  160.1025 H       1  UNL1        0.1510
     26 C         140.8533  139.9425  161.3890 C.3     1  UNL1        0.0768
     27 C         139.7912  138.9417  161.7356 C.3     1  UNL1        0.0437
     28 C         139.2540  138.8720  163.1344 C.ar    1  UNL1       -0.0207
     29 C         139.3699  137.5994  163.9199 C.ar    1  UNL1       -0.0034
     30 C         138.8328  137.5298  165.3186 C.ar    1  UNL1        0.0111
     31 C         138.1797  138.7329  165.9320 C.ar    1  UNL1        0.0577
     32 CL        137.6425  138.6633  167.3308 Cl      1  UNL1       -0.0822
     33 C         138.0638  140.0055  165.1465 C.ar    1  UNL1        0.0111
     34 C         138.6010  140.0751  163.7478 C.ar    1  UNL1       -0.0034
@<TRIPOS>BOND
     1    19    20    1
     2    20    21   am
     3    21    22    2
     4    21    23   am
     5    23    18    1
     6    18    17    1
     7    17     1    1
     8     1    26    1
     9    26    27    1
    10    27    28    1
    11    28    29   ar
    12    29    30   ar
    13    30    31   ar
    14    31    32    1
    15    31    33   ar
    16    33    34   ar
    17     1     2    1
    18     2     3    1
    19     3     4    1
    20     4     5    1
    21     5     8    1
    22     8     9   ar
    23     9    10   ar
    24    10    11    1
    25    10    12   ar
    26    12    13   ar
    27     5     6    1
    28     6     7    1
    29    34    28   ar
    30     7     2    1
    31    13     8   ar
    32    20    24    1
    33    23    25    1
    34    11    14    1
    35    11    15    1
    36    13    16    1
@<TRIPOS>MOLECULE
*****
 34 36 0 0 0
SMALL
GASTEIGER

@<TRIPOS>ATOM
      1 N         142.7003  138.5764  162.6563 N.3     1  UNL1       -0.2721
      2 C         142.7523  139.1316  164.0488 C.3     1  UNL1        0.0610
      3 C         142.9265  138.2087  165.2182 C.3     1  UNL1        0.0375
      4 C         142.9785  138.7639  166.6107 C.3     1  UNL1        0.0950
      5 N         142.8562  140.2422  166.8337 N.pl3   1  UNL1       -0.2785
      6 C         142.6820  141.1652  165.6642 C.3     1  UNL1        0.0950
      7 C         142.6300  140.6100  164.2717 C.3     1  UNL1        0.0375
      8 C         142.9082  140.7974  168.2262 C.ar    1  UNL1        0.2163
      9 N         143.0716  142.2426  168.5936 N.ar    1  UNL1       -0.1804
     10 C         143.0702  142.3433  170.0902 C.ar    1  UNL1        0.2331
     11 N         143.2088  143.6053  170.8890 N.pl3   1  UNL1       -0.3262
     12 N         142.9061  140.9605  170.6478 N.ar    1  UNL1       -0.1354
     13 N         142.8060  140.0051  169.4957 N.ar    1  UNL1       -0.2450
     14 H         143.3124  144.4699  170.4296 H       1  UNL1        0.1452
     15 H         143.1961  143.5691  171.8728 H       1  UNL1        0.1452
     16 H         142.6930  139.0293  169.5613 H       1  UNL1        0.1919
     17 C         143.8539  138.7876  161.7211 C.3     1  UNL1        0.0936
     18 C         143.7401  139.7800  160.6021 C.3     1  UNL1        0.1082
     19 C         142.2612  137.7522  156.0522 C.3     1  UNL1        0.1122
     20 N         143.3254  138.3529  156.9223 N.am    1  UNL1       -0.2872
     21 C         143.0007  138.7661  158.3272 C.2     1  UNL1        0.3008
     22 O         141.6119  138.5788  158.8621 O.2     1  UNL1       -0.2528
     23 N         144.0648  139.3667  159.1971 N.am    1  UNL1       -0.2875
     24 H         144.2369  138.4759  156.5712 H       1  UNL1        0.1510
     25 H         144.9763  139.4897  158.8460 H       1  UNL1        0.1510
     26 C         141.4947  137.8098  162.1990 C.3     1  UNL1        0.0768
     27 C         140.1305  138.4243  162.3055 C.3     1  UNL1        0.0437
     28 C         139.4338  138.4785  163.6328 C.ar    1  UNL1       -0.0207
     29 C         139.2697  137.2284  164.4453 C.ar    1  UNL1       -0.0034
     30 C         138.5731  137.2827  165.7726 C.ar    1  UNL1        0.0111
     31 C         138.0404  138.5871  166.2873 C.ar    1  UNL1        0.0577
     32 CL        137.3437  138.6413  167.6146 Cl      1  UNL1       -0.0822
     33 C         138.2045  139.8372  165.4747 C.ar    1  UNL1        0.0111
     34 C         138.9012  139.7829  164.1475 C.ar    1  UNL1       -0.0034
@<TRIPOS>BOND
     1    19    20    1
     2    20    21   am
     3    21    22    2
     4    21    23   am
     5    23    18    1
     6    18    17    1
     7    17     1    1
     8     1    26    1
     9    26    27    1
    10    27    28    1
    11    28    29   ar
    12    29    30   ar
    13    30    31   ar
    14    31    32    1
    15    31    33   ar
    16    33    34   ar
    17     1     2    1
    18     2     3    1
    19     3     4    1
    20     4     5    1
    21     5     8    1
    22     8     9   ar
    23     9    10   ar
    24    10    11    1
    25    10    12   ar
    26    12    13   ar
    27     5     6    1
    28     6     7    1
    29    34    28   ar
    30     7     2    1
    31    13     8   ar
    32    20    24    1
    33    23    25    1
    34    11    14    1
    35    11    15    1
    36    13    16    1
@<TRIPOS>MOLECULE
*****
 34 36 0 0 0
SMALL
GASTEIGER

@<TRIPOS>ATOM
      1 N         139.7099  144.5252  163.4644 N.3     1  UNL1       -0.2721
      2 C         140.2983  143.6104  164.4973 C.3     1  UNL1        0.0610
      3 C         141.3102  142.5784  164.0959 C.3     1  UNL1        0.0375
      4 C         141.8987  141.6636  165.1288 C.3     1  UNL1        0.0950
      5 N         141.4753  141.7807  166.5629 N.pl3   1  UNL1       -0.2785
      6 C         140.4633  142.8126  166.9644 C.3     1  UNL1        0.0950
      7 C         139.8748  143.7275  165.9315 C.3     1  UNL1        0.0375
      8 C         142.0637  140.8658  167.5958 C.ar    1  UNL1        0.2163
      9 N         142.3178  141.2075  169.0342 N.ar    1  UNL1       -0.1804
     10 C         142.9126  140.0015  169.6989 C.ar    1  UNL1        0.2331
     11 N         143.3219  139.9003  171.1384 N.pl3   1  UNL1       -0.3262
     12 N         143.0261  138.9145  168.6715 N.ar    1  UNL1       -0.1354
     13 N         142.5015  139.4487  167.3717 N.ar    1  UNL1       -0.2450
     14 H         143.2074  140.6725  171.7382 H       1  UNL1        0.1452
     15 H         143.7051  139.0616  171.4834 H       1  UNL1        0.1452
     16 H         142.4529  138.9558  166.5209 H       1  UNL1        0.1919
     17 C         140.5857  145.5107  162.7491 C.3     1  UNL1        0.0936
     18 C         140.4550  145.6916  161.2658 C.3     1  UNL1        0.1082
     19 C         143.3499  142.3193  158.5737 C.3     1  UNL1        0.1122
     20 N         143.0718  143.7230  159.0238 N.am    1  UNL1       -0.2872
     21 C         141.9024  144.0055  159.9198 C.2     1  UNL1        0.3008
     22 O         141.0111  142.8844  160.3656 O.2     1  UNL1       -0.2528
     23 N         141.6244  145.4091  160.3698 N.am    1  UNL1       -0.2875
     24 H         143.6568  144.4588  158.7312 H       1  UNL1        0.1510
     25 H         142.2094  146.1448  160.0772 H       1  UNL1        0.1510
     26 C         138.2455  144.4545  163.1469 C.3     1  UNL1        0.0768
     27 C         137.4039  143.3581  163.7294 C.3     1  UNL1        0.0437
     28 C         137.7290  141.9243  163.4316 C.ar    1  UNL1       -0.0207
     29 C         137.8074  141.4527  162.0098 C.ar    1  UNL1       -0.0034
     30 C         138.1325  140.0190  161.7121 C.ar    1  UNL1        0.0111
     31 C         138.3792  139.0568  162.8361 C.ar    1  UNL1        0.0577
     32 CL        138.7043  137.6230  162.5382 Cl      1  UNL1       -0.0822
     33 C         138.3008  139.5284  164.2578 C.ar    1  UNL1        0.0111
     34 C         137.9757  140.9621  164.5556 C.ar    1  UNL1       -0.0034
@<TRIPOS>BOND
     1    19    20    1
     2    20    21   am
     3    21    22    2
     4    21    23   am
     5    23    18    1
     6    18    17    1
     7    17     1    1
     8     1    26    1
     9    26    27    1
    10    27    28    1
    11    28    29   ar
    12    29    30   ar
    13    30    31   ar
    14    31    32    1
    15    31    33   ar
    16    33    34   ar
    17     1     2    1
    18     2     3    1
    19     3     4    1
    20     4     5    1
    21     5     8    1
    22     8     9   ar
    23     9    10   ar
    24    10    11    1
    25    10    12   ar
    26    12    13   ar
    27     5     6    1
    28     6     7    1
    29    34    28   ar
    30     7     2    1
    31    13     8   ar
    32    20    24    1
    33    23    25    1
    34    11    14    1
    35    11    15    1
    36    13    16    1
@<TRIPOS>MOLECULE
*****
 34 36 0 0 0
SMALL
GASTEIGER

@<TRIPOS>ATOM
      1 N         138.9139  139.4804  164.4566 N.3     1  UNL1       -0.2721
      2 C         139.3285  140.5410  163.4803 C.3     1  UNL1        0.0610
      3 C         139.6834  141.9137  163.9698 C.3     1  UNL1        0.0375
      4 C         140.0981  142.9743  162.9935 C.3     1  UNL1        0.0950
      5 N         140.1579  142.6621  161.5276 N.pl3   1  UNL1       -0.2785
      6 C         139.8031  141.2893  161.0379 C.3     1  UNL1        0.0950
      7 C         139.3884  140.2288  162.0143 C.3     1  UNL1        0.0375
      8 C         140.5726  143.7227  160.5512 C.ar    1  UNL1        0.2163
      9 N         139.7057  144.3303  159.4885 N.ar    1  UNL1       -0.1804
     10 C         140.5244  145.3450  158.7467 C.ar    1  UNL1        0.2331
     11 N         140.0529  146.1915  157.6016 N.pl3   1  UNL1       -0.3262
     12 N         141.8972  145.3644  159.3509 N.ar    1  UNL1       -0.1354
     13 N         141.9270  144.3618  160.4661 N.ar    1  UNL1       -0.2450
     14 H         139.1284  146.1061  157.2742 H       1  UNL1        0.1452
     15 H         140.6680  146.8326  157.1775 H       1  UNL1        0.1452
     16 H         142.6998  144.1588  161.0413 H       1  UNL1        0.1919
     17 C         139.1178  138.0324  164.1226 C.3     1  UNL1        0.0936
     18 C         140.4547  137.3915  164.3497 C.3     1  UNL1        0.1082
     19 C         144.2369  138.6027  160.9988 C.3     1  UNL1        0.1122
     20 N         143.2110  137.6321  161.5046 N.am    1  UNL1       -0.2872
     21 C         142.3458  137.9971  162.6743 C.2     1  UNL1        0.3008
     22 O         142.5064  139.3325  163.3382 O.2     1  UNL1       -0.2528
     23 N         141.3200  137.0266  163.1800 N.am    1  UNL1       -0.2875
     24 H         143.1056  136.7557  161.0688 H       1  UNL1        0.1510
     25 H         141.2146  136.1501  162.7442 H       1  UNL1        0.1510
     26 C         138.2952  139.8680  165.7671 C.3     1  UNL1        0.0768
     27 C         138.9073  139.3984  167.0534 C.3     1  UNL1        0.0437
     28 C         140.0941  140.1159  167.6252 C.ar    1  UNL1       -0.0207
     29 C         139.9099  141.0942  168.7472 C.ar    1  UNL1       -0.0034
     30 C         141.0966  141.8116  169.3190 C.ar    1  UNL1        0.0111
     31 C         142.4675  141.5507  168.7688 C.ar    1  UNL1        0.0577
     32 CL        143.6542  142.2682  169.3406 Cl      1  UNL1       -0.0822
     33 C         142.6516  140.5724  167.6468 C.ar    1  UNL1        0.0111
     34 C         141.4649  139.8550  167.0750 C.ar    1  UNL1       -0.0034
@<TRIPOS>BOND
     1    19    20    1
     2    20    21   am
     3    21    22    2
     4    21    23   am
     5    23    18    1
     6    18    17    1
     7    17     1    1
     8     1    26    1
     9    26    27    1
    10    27    28    1
    11    28    29   ar
    12    29    30   ar
    13    30    31   ar
    14    31    32    1
    15    31    33   ar
    16    33    34   ar
    17     1     2    1
    18     2     3    1
    19     3     4    1
    20     4     5    1
    21     5     8    1
    22     8     9   ar
    23     9    10   ar
    24    10    11    1
    25    10    12   ar
    26    12    13   ar
    27     5     6    1
    28     6     7    1
    29    34    28   ar
    30     7     2    1
    31    13     8   ar
    32    20    24    1
    33    23    25    1
    34    11    14    1
    35    11    15    1
    36    13    16    1
