@<TRIPOS>MOLECULE
*****
 36 40 0 0 0
SMALL
GASTEIGER

@<TRIPOS>ATOM
      1 N         138.2643  142.8139  160.1457 N.pl3   1  UNL1       -0.2464
      2 C         139.0566  142.6046  161.4022 C.2     1  UNL1        0.3157
      3 N         139.1262  141.3360  162.1995 N.2     1  UNL1       -0.0614
      4 C         140.0309  141.5746  163.3719 C.3     1  UNL1        0.2309
      5 C         140.5204  142.9906  163.2992 C.ar    1  UNL1        0.0390
      6 C         141.4367  143.7825  164.1842 C.ar    1  UNL1        0.0008
      7 C         141.7507  145.2111  163.8518 C.ar    1  UNL1        0.0021
      8 C         141.1485  145.8477  162.6344 C.ar    1  UNL1        0.0299
      9 C         140.2322  145.0558  161.7494 C.ar    1  UNL1        0.1470
     10 F         139.6300  145.6924  160.5320 F       1  UNL1       -0.2039
     11 C         139.9182  143.6272  162.0818 C.ar    1  UNL1        0.1094
     12 H         137.7261  142.0777  159.7748 H       1  UNL1        0.2884
     13 H         138.2826  143.6875  159.6921 H       1  UNL1        0.2884
     14 C         140.8700  141.5144  164.6138 C.ar    1  UNL1        0.0298
     15 C         142.3077  141.0951  164.5281 C.ar    1  UNL1        0.0027
     16 C         143.1467  141.0350  165.7700 C.ar    1  UNL1        0.0295
     17 C         142.5481  141.3942  167.0977 C.ar    1  UNL1        0.1402
     18 F         143.3872  141.3341  168.3396 F       1  UNL1       -0.2042
     19 C         141.1105  141.8135  167.1835 C.ar    1  UNL1        0.0303
     20 C         140.2714  141.8736  165.9415 C.ar    1  UNL1        0.0027
     21 C         140.5118  142.1727  168.5111 C.ar    1  UNL1        0.0405
     22 C         140.5984  143.5826  169.0160 C.ar    1  UNL1        0.1022
     23 N         139.9998  143.9418  170.3435 N.ar    1  UNL1       -0.2224
     24 C         139.3146  142.8912  171.1663 C.ar    1  UNL1        0.1989
     25 N         139.2280  141.4814  170.6614 N.ar    1  UNL1       -0.2224
     26 C         139.8266  141.1221  169.3337 C.ar    1  UNL1        0.1022
     27 C         139.7168  140.1459  163.7043 C.ar    1  UNL1        0.0327
     28 C         140.2011  139.0438  162.8095 C.ar    1  UNL1        0.0211
     29 C         139.8870  137.6152  163.1419 C.ar    1  UNL1        0.0986
     30 N         139.0886  137.2888  164.3691 N.ar    1  UNL1       -0.2399
     31 C         138.6044  138.3910  165.2640 C.ar    1  UNL1        0.1525
     32 C         138.9185  139.8195  164.9316 C.ar    1  UNL1        0.0235
     33 C         137.8061  138.0645  166.4912 C.3     1  UNL1        0.4348
     34 F         137.0077  137.7381  167.7184 F       1  UNL1       -0.1644
     35 F         137.7977  139.5155  166.8717 F       1  UNL1       -0.1644
     36 F         137.8144  136.6136  166.1107 F       1  UNL1       -0.1644
@<TRIPOS>BOND
     1     1     2    1
     2     2     3    2
     3     3     4    1
     4     4    27    1
     5    27    28   ar
     6    28    29   ar
     7    29    30   ar
     8    30    31   ar
     9    31    33    1
    10    33    34    1
    11    33    35    1
    12    33    36    1
    13    31    32   ar
    14     4    14    1
    15    14    15   ar
    16    15    16   ar
    17    16    17   ar
    18    17    18    1
    19    17    19   ar
    20    19    21    1
    21    21    22   ar
    22    22    23   ar
    23    23    24   ar
    24    24    25   ar
    25    25    26   ar
    26    19    20   ar
    27     4     5    1
    28     5     6   ar
    29     6     7   ar
    30     7     8   ar
    31     8     9   ar
    32     9    10    1
    33     9    11   ar
    34    11     2    1
    35    32    27   ar
    36    20    14   ar
    37    11     5   ar
    38    26    21   ar
    39     1    12    1
    40     1    13    1
@<TRIPOS>MOLECULE
*****
 36 40 0 0 0
SMALL
GASTEIGER

@<TRIPOS>ATOM
      1 N         140.4583  139.8632  160.1432 N.pl3   1  UNL1       -0.2464
      2 C         140.8224  139.7180  161.5911 C.2     1  UNL1        0.3157
      3 N         141.9879  140.3674  162.2766 N.2     1  UNL1       -0.0614
      4 C         141.9706  139.9486  163.7168 C.3     1  UNL1        0.2309
      5 C         140.7945  139.0405  163.9215 C.ar    1  UNL1        0.0390
      6 C         140.2780  138.3249  165.1344 C.ar    1  UNL1        0.0008
      7 C         139.0519  137.4668  165.0335 C.ar    1  UNL1        0.0021
      8 C         138.3422  137.3242  163.7197 C.ar    1  UNL1        0.0299
      9 C         138.8587  138.0398  162.5068 C.ar    1  UNL1        0.1470
     10 F         138.1490  137.8973  161.1930 F       1  UNL1       -0.2039
     11 C         140.0848  138.8979  162.6077 C.ar    1  UNL1        0.1094
     12 H         141.0073  140.4271  159.5517 H       1  UNL1        0.2884
     13 H         139.6703  139.3947  159.7844 H       1  UNL1        0.2884
     14 C         142.2097  139.7093  165.1781 C.ar    1  UNL1        0.0298
     15 C         143.1112  138.5938  165.6178 C.ar    1  UNL1        0.0027
     16 C         143.3503  138.3545  167.0792 C.ar    1  UNL1        0.0295
     17 C         142.6880  139.2305  168.1009 C.ar    1  UNL1        0.1402
     18 F         142.9271  138.9912  169.5622 F       1  UNL1       -0.2042
     19 C         141.7866  140.3460  167.6613 C.ar    1  UNL1        0.0303
     20 C         141.5474  140.5854  166.1999 C.ar    1  UNL1        0.0027
     21 C         141.1243  141.2221  168.6829 C.ar    1  UNL1        0.0405
     22 C         141.7280  142.5487  169.0378 C.ar    1  UNL1        0.1022
     23 N         141.0658  143.4248  170.0593 N.ar    1  UNL1       -0.2224
     24 C         139.7998  142.9744  170.7261 C.ar    1  UNL1        0.1989
     25 N         139.1961  141.6479  170.3712 N.ar    1  UNL1       -0.2224
     26 C         139.8584  140.7717  169.3496 C.ar    1  UNL1        0.1022
     27 C         143.1968  140.8068  163.8176 C.ar    1  UNL1        0.0327
     28 C         144.5516  140.2106  163.5747 C.ar    1  UNL1        0.0211
     29 C         145.7777  141.0687  163.6756 C.ar    1  UNL1        0.0986
     30 N         145.6490  142.5231  164.0193 N.ar    1  UNL1       -0.2399
     31 C         144.2942  143.1194  164.2622 C.ar    1  UNL1        0.1525
     32 C         143.0681  142.2612  164.1614 C.ar    1  UNL1        0.0235
     33 C         144.1655  144.5738  164.6060 C.3     1  UNL1        0.4348
     34 F         144.0368  146.0282  164.9498 F       1  UNL1       -0.1644
     35 F         143.3367  144.7914  163.3749 F       1  UNL1       -0.1644
     36 F         144.9944  144.3561  165.8371 F       1  UNL1       -0.1644
@<TRIPOS>BOND
     1     1     2    1
     2     2     3    2
     3     3     4    1
     4     4    27    1
     5    27    28   ar
     6    28    29   ar
     7    29    30   ar
     8    30    31   ar
     9    31    33    1
    10    33    34    1
    11    33    35    1
    12    33    36    1
    13    31    32   ar
    14     4    14    1
    15    14    15   ar
    16    15    16   ar
    17    16    17   ar
    18    17    18    1
    19    17    19   ar
    20    19    21    1
    21    21    22   ar
    22    22    23   ar
    23    23    24   ar
    24    24    25   ar
    25    25    26   ar
    26    19    20   ar
    27     4     5    1
    28     5     6   ar
    29     6     7   ar
    30     7     8   ar
    31     8     9   ar
    32     9    10    1
    33     9    11   ar
    34    11     2    1
    35    32    27   ar
    36    20    14   ar
    37    11     5   ar
    38    26    21   ar
    39     1    12    1
    40     1    13    1
@<TRIPOS>MOLECULE
*****
 36 40 0 0 0
SMALL
GASTEIGER

@<TRIPOS>ATOM
      1 N         136.6209  137.6615  168.1042 N.pl3   1  UNL1       -0.2464
      2 C         137.7451  138.4825  167.5455 C.2     1  UNL1        0.3157
      3 N         138.3123  138.3746  166.1611 N.2     1  UNL1       -0.0614
      4 C         139.4173  139.3809  166.0331 C.3     1  UNL1        0.2309
      5 C         139.5329  140.1108  167.3385 C.ar    1  UNL1        0.0390
      6 C         140.4458  141.2093  167.7967 C.ar    1  UNL1        0.0008
      7 C         140.3252  141.7526  169.1896 C.ar    1  UNL1        0.0021
      8 C         139.2917  141.1973  170.1243 C.ar    1  UNL1        0.0299
      9 C         138.3789  140.0988  169.6661 C.ar    1  UNL1        0.1470
     10 F         137.3454  139.5436  170.6008 F       1  UNL1       -0.2039
     11 C         138.4995  139.5556  168.2732 C.ar    1  UNL1        0.1094
     12 H         136.1863  136.9772  167.5456 H       1  UNL1        0.2884
     13 H         136.3178  137.8070  169.0295 H       1  UNL1        0.2884
     14 C         140.5474  140.2737  165.6140 C.ar    1  UNL1        0.0298
     15 C         141.9294  140.0343  166.1460 C.ar    1  UNL1        0.0027
     16 C         143.0595  140.9271  165.7268 C.ar    1  UNL1        0.0295
     17 C         142.8077  142.0593  164.7756 C.ar    1  UNL1        0.1402
     18 F         143.9379  142.9521  164.3564 F       1  UNL1       -0.2042
     19 C         141.4258  142.2988  164.2436 C.ar    1  UNL1        0.0303
     20 C         140.2956  141.4059  164.6628 C.ar    1  UNL1        0.0027
     21 C         141.1740  143.4310  163.2925 C.ar    1  UNL1        0.0405
     22 C         140.0760  144.4143  163.5711 C.ar    1  UNL1        0.1022
     23 N         139.8241  145.5465  162.6201 N.ar    1  UNL1       -0.2224
     24 C         140.6701  145.6954  161.3903 C.ar    1  UNL1        0.1989
     25 N         141.7680  144.7120  161.1117 N.ar    1  UNL1       -0.2224
     26 C         142.0199  143.5798  162.0628 C.ar    1  UNL1        0.1022
     27 C         139.5378  138.8376  164.6401 C.ar    1  UNL1        0.0327
     28 C         140.6117  137.8426  164.3135 C.ar    1  UNL1        0.0211
     29 C         140.7322  137.2994  162.9206 C.ar    1  UNL1        0.0986
     30 N         139.7789  137.7512  161.8543 N.ar    1  UNL1       -0.2399
     31 C         138.7051  138.7462  162.1809 C.ar    1  UNL1        0.1525
     32 C         138.5845  139.2895  163.5738 C.ar    1  UNL1        0.0235
     33 C         137.7518  139.1980  161.1145 C.3     1  UNL1        0.4348
     34 F         136.7985  139.6499  160.0482 F       1  UNL1       -0.1644
     35 F         136.8897  137.9989  161.3771 F       1  UNL1       -0.1644
     36 F         138.6138  140.3972  160.8519 F       1  UNL1       -0.1644
@<TRIPOS>BOND
     1     1     2    1
     2     2     3    2
     3     3     4    1
     4     4    27    1
     5    27    28   ar
     6    28    29   ar
     7    29    30   ar
     8    30    31   ar
     9    31    33    1
    10    33    34    1
    11    33    35    1
    12    33    36    1
    13    31    32   ar
    14     4    14    1
    15    14    15   ar
    16    15    16   ar
    17    16    17   ar
    18    17    18    1
    19    17    19   ar
    20    19    21    1
    21    21    22   ar
    22    22    23   ar
    23    23    24   ar
    24    24    25   ar
    25    25    26   ar
    26    19    20   ar
    27     4     5    1
    28     5     6   ar
    29     6     7   ar
    30     7     8   ar
    31     8     9   ar
    32     9    10    1
    33     9    11   ar
    34    11     2    1
    35    32    27   ar
    36    20    14   ar
    37    11     5   ar
    38    26    21   ar
    39     1    12    1
    40     1    13    1
@<TRIPOS>MOLECULE
*****
 36 40 0 0 0
SMALL
GASTEIGER

@<TRIPOS>ATOM
      1 N         137.8733  139.8092  170.2687 N.pl3   1  UNL1       -0.2464
      2 C         139.0212  139.8877  169.3063 C.2     1  UNL1        0.3157
      3 N         138.9525  139.6338  167.8295 N.2     1  UNL1       -0.0614
      4 C         140.3282  139.8231  167.2623 C.3     1  UNL1        0.2309
      5 C         141.2470  140.1939  168.3885 C.ar    1  UNL1        0.0390
      6 C         142.7148  140.5004  168.4269 C.ar    1  UNL1        0.0008
      7 C         143.3749  140.8467  169.7285 C.ar    1  UNL1        0.0021
      8 C         142.5671  140.8866  170.9918 C.ar    1  UNL1        0.0299
      9 C         141.0993  140.5802  170.9534 C.ar    1  UNL1        0.1470
     10 F         140.2915  140.6201  172.2167 F       1  UNL1       -0.2039
     11 C         140.4392  140.2338  169.6518 C.ar    1  UNL1        0.1094
     12 H         136.9743  139.5726  169.9444 H       1  UNL1        0.2884
     13 H         138.0189  139.9942  171.2246 H       1  UNL1        0.2884
     14 C         141.5658  139.9400  166.4229 C.ar    1  UNL1        0.0298
     15 C         142.4918  138.7679  166.2847 C.ar    1  UNL1        0.0027
     16 C         143.7294  138.8847  165.4453 C.ar    1  UNL1        0.0295
     17 C         144.0412  140.1737  164.7442 C.ar    1  UNL1        0.1402
     18 F         145.2788  140.2905  163.9048 F       1  UNL1       -0.2042
     19 C         143.1154  141.3457  164.8824 C.ar    1  UNL1        0.0303
     20 C         141.8776  141.2289  165.7218 C.ar    1  UNL1        0.0027
     21 C         143.4271  142.6346  164.1813 C.ar    1  UNL1        0.0405
     22 C         143.7234  143.8698  164.9794 C.ar    1  UNL1        0.1022
     23 N         144.0351  145.1587  164.2784 N.ar    1  UNL1       -0.2224
     24 C         144.0505  145.2125  162.7794 C.ar    1  UNL1        0.1989
     25 N         143.7542  143.9775  161.9815 N.ar    1  UNL1       -0.2224
     26 C         143.4425  142.6885  162.6825 C.ar    1  UNL1        0.1022
     27 C         139.6681  139.4767  165.9606 C.ar    1  UNL1        0.0327
     28 C         139.5911  138.0462  165.5160 C.ar    1  UNL1        0.0211
     29 C         138.9310  137.6999  164.2144 C.ar    1  UNL1        0.0986
     30 N         138.3479  138.7841  163.3573 N.ar    1  UNL1       -0.2399
     31 C         138.4249  140.2146  163.8019 C.ar    1  UNL1        0.1525
     32 C         139.0850  140.5609  165.1035 C.ar    1  UNL1        0.0235
     33 C         137.8418  141.2988  162.9449 C.3     1  UNL1        0.4348
     34 F         137.2587  142.3829  162.0878 F       1  UNL1       -0.1644
     35 F         137.4424  140.2760  161.9228 F       1  UNL1       -0.1644
     36 F         138.2412  142.3215  163.9669 F       1  UNL1       -0.1644
@<TRIPOS>BOND
     1     1     2    1
     2     2     3    2
     3     3     4    1
     4     4    27    1
     5    27    28   ar
     6    28    29   ar
     7    29    30   ar
     8    30    31   ar
     9    31    33    1
    10    33    34    1
    11    33    35    1
    12    33    36    1
    13    31    32   ar
    14     4    14    1
    15    14    15   ar
    16    15    16   ar
    17    16    17   ar
    18    17    18    1
    19    17    19   ar
    20    19    21    1
    21    21    22   ar
    22    22    23   ar
    23    23    24   ar
    24    24    25   ar
    25    25    26   ar
    26    19    20   ar
    27     4     5    1
    28     5     6   ar
    29     6     7   ar
    30     7     8   ar
    31     8     9   ar
    32     9    10    1
    33     9    11   ar
    34    11     2    1
    35    32    27   ar
    36    20    14   ar
    37    11     5   ar
    38    26    21   ar
    39     1    12    1
    40     1    13    1
@<TRIPOS>MOLECULE
*****
 36 40 0 0 0
SMALL
GASTEIGER

@<TRIPOS>ATOM
      1 N         142.0712  145.0675  161.2331 N.pl3   1  UNL1       -0.2464
      2 C         141.4748  143.9530  162.0407 C.2     1  UNL1        0.3157
      3 N         142.1309  142.6404  162.3514 N.2     1  UNL1       -0.0614
      4 C         141.1791  141.8316  163.1820 C.3     1  UNL1        0.2309
      5 C         139.9348  142.6443  163.3847 C.ar    1  UNL1        0.0390
      6 C         138.6590  142.3599  164.1205 C.ar    1  UNL1        0.0008
      7 C         137.5659  143.3866  164.1508 C.ar    1  UNL1        0.0021
      8 C         137.7486  144.6978  163.4454 C.ar    1  UNL1        0.0299
      9 C         139.0244  144.9822  162.7097 C.ar    1  UNL1        0.1470
     10 F         139.2072  146.2933  162.0043 F       1  UNL1       -0.2039
     11 C         140.1175  143.9555  162.6793 C.ar    1  UNL1        0.1094
     12 H         142.9742  144.9713  160.8529 H       1  UNL1        0.2884
     13 H         141.5596  145.8952  161.0834 H       1  UNL1        0.2884
     14 C         140.4559  140.8082  164.0063 C.ar    1  UNL1        0.0298
     15 C         139.6580  139.7308  163.3335 C.ar    1  UNL1        0.0027
     16 C         138.9348  138.7073  164.1578 C.ar    1  UNL1        0.0295
     17 C         139.0094  138.7612  165.6550 C.ar    1  UNL1        0.1402
     18 F         138.2862  137.7378  166.4793 F       1  UNL1       -0.2042
     19 C         139.8073  139.8385  166.3278 C.ar    1  UNL1        0.0303
     20 C         140.5306  140.8620  165.5035 C.ar    1  UNL1        0.0027
     21 C         139.8820  139.8925  167.8250 C.ar    1  UNL1        0.0405
     22 C         141.2169  139.9186  168.5088 C.ar    1  UNL1        0.1022
     23 N         141.2917  139.9725  170.0059 N.ar    1  UNL1       -0.2224
     24 C         140.0316  140.0004  170.8193 C.ar    1  UNL1        0.1989
     25 N         138.6968  139.9743  170.1355 N.ar    1  UNL1       -0.2224
     26 C         138.6220  139.9204  168.6383 C.ar    1  UNL1        0.1022
     27 C         142.2723  140.8048  163.1516 C.ar    1  UNL1        0.0327
     28 C         142.9471  140.4659  161.8556 C.ar    1  UNL1        0.0211
     29 C         144.0402  139.4392  161.8253 C.ar    1  UNL1        0.0986
     30 N         144.4585  138.7515  163.0910 N.ar    1  UNL1       -0.2399
     31 C         143.7838  139.0904  164.3870 C.ar    1  UNL1        0.1525
     32 C         142.6907  140.1171  164.4174 C.ar    1  UNL1        0.0235
     33 C         144.2021  138.4027  165.6527 C.3     1  UNL1        0.4348
     34 F         144.6205  137.7150  166.9184 F       1  UNL1       -0.1644
     35 F         145.6420  138.6407  165.3061 F       1  UNL1       -0.1644
     36 F         142.7623  138.1647  165.9993 F       1  UNL1       -0.1644
@<TRIPOS>BOND
     1     1     2    1
     2     2     3    2
     3     3     4    1
     4     4    27    1
     5    27    28   ar
     6    28    29   ar
     7    29    30   ar
     8    30    31   ar
     9    31    33    1
    10    33    34    1
    11    33    35    1
    12    33    36    1
    13    31    32   ar
    14     4    14    1
    15    14    15   ar
    16    15    16   ar
    17    16    17   ar
    18    17    18    1
    19    17    19   ar
    20    19    21    1
    21    21    22   ar
    22    22    23   ar
    23    23    24   ar
    24    24    25   ar
    25    25    26   ar
    26    19    20   ar
    27     4     5    1
    28     5     6   ar
    29     6     7   ar
    30     7     8   ar
    31     8     9   ar
    32     9    10    1
    33     9    11   ar
    34    11     2    1
    35    32    27   ar
    36    20    14   ar
    37    11     5   ar
    38    26    21   ar
    39     1    12    1
    40     1    13    1
@<TRIPOS>MOLECULE
*****
 36 40 0 0 0
SMALL
GASTEIGER

@<TRIPOS>ATOM
      1 N         142.1259  145.0216  161.2096 N.pl3   1  UNL1       -0.2464
      2 C         141.5061  143.9426  162.0472 C.2     1  UNL1        0.3157
      3 N         142.1184  142.6100  162.3625 N.2     1  UNL1       -0.0614
      4 C         141.1560  141.8506  163.2268 C.3     1  UNL1        0.2309
      5 C         139.9489  142.7138  163.4457 C.ar    1  UNL1        0.0390
      6 C         138.6807  142.4895  164.2146 C.ar    1  UNL1        0.0008
      7 C         137.6289  143.5582  164.2545 C.ar    1  UNL1        0.0021
      8 C         137.8453  144.8511  163.5255 C.ar    1  UNL1        0.0299
      9 C         139.1135  145.0754  162.7566 C.ar    1  UNL1        0.1470
     10 F         139.3299  146.3683  162.0275 F       1  UNL1       -0.2039
     11 C         140.1653  144.0067  162.7167 C.ar    1  UNL1        0.1094
     12 H         143.0153  144.8850  160.8103 H       1  UNL1        0.2884
     13 H         141.6431  145.8663  161.0591 H       1  UNL1        0.2884
     14 C         140.4135  140.8677  164.0827 C.ar    1  UNL1        0.0298
     15 C         139.5024  139.8588  163.4484 C.ar    1  UNL1        0.0027
     16 C         138.7599  138.8760  164.3043 C.ar    1  UNL1        0.0295
     17 C         138.9284  138.9020  165.7946 C.ar    1  UNL1        0.1402
     18 F         138.1859  137.9191  166.6506 F       1  UNL1       -0.2042
     19 C         139.8393  139.9108  166.4290 C.ar    1  UNL1        0.0303
     20 C         140.5819  140.8937  165.5730 C.ar    1  UNL1        0.0027
     21 C         140.0078  139.9368  167.9193 C.ar    1  UNL1        0.0405
     22 C         141.3804  139.8651  168.5202 C.ar    1  UNL1        0.1022
     23 N         141.5490  139.8911  170.0103 N.ar    1  UNL1       -0.2224
     24 C         140.3450  139.9889  170.8998 C.ar    1  UNL1        0.1989
     25 N         138.9725  140.0606  170.2989 N.ar    1  UNL1       -0.2224
     26 C         138.8039  140.0346  168.8086 C.ar    1  UNL1        0.1022
     27 C         142.2079  140.7819  163.1869 C.ar    1  UNL1        0.0327
     28 C         143.2675  140.7325  164.2473 C.ar    1  UNL1        0.0211
     29 C         144.3193  139.6638  164.2074 C.ar    1  UNL1        0.0986
     30 N         144.3115  138.6446  163.1069 N.ar    1  UNL1       -0.2399
     31 C         143.2518  138.6940  162.0464 C.ar    1  UNL1        0.1525
     32 C         142.2000  139.7626  162.0864 C.ar    1  UNL1        0.0235
     33 C         143.2440  137.6747  160.9459 C.3     1  UNL1        0.4348
     34 F         143.2361  136.6554  159.8455 F       1  UNL1       -0.1644
     35 F         141.8709  138.1226  160.5409 F       1  UNL1       -0.1644
     36 F         144.6170  137.2268  161.3510 F       1  UNL1       -0.1644
@<TRIPOS>BOND
     1     1     2    1
     2     2     3    2
     3     3     4    1
     4     4    27    1
     5    27    28   ar
     6    28    29   ar
     7    29    30   ar
     8    30    31   ar
     9    31    33    1
    10    33    34    1
    11    33    35    1
    12    33    36    1
    13    31    32   ar
    14     4    14    1
    15    14    15   ar
    16    15    16   ar
    17    16    17   ar
    18    17    18    1
    19    17    19   ar
    20    19    21    1
    21    21    22   ar
    22    22    23   ar
    23    23    24   ar
    24    24    25   ar
    25    25    26   ar
    26    19    20   ar
    27     4     5    1
    28     5     6   ar
    29     6     7   ar
    30     7     8   ar
    31     8     9   ar
    32     9    10    1
    33     9    11   ar
    34    11     2    1
    35    32    27   ar
    36    20    14   ar
    37    11     5   ar
    38    26    21   ar
    39     1    12    1
    40     1    13    1
@<TRIPOS>MOLECULE
*****
 36 40 0 0 0
SMALL
GASTEIGER

@<TRIPOS>ATOM
      1 N         136.9364  137.5170  167.7040 N.pl3   1  UNL1       -0.2464
      2 C         138.0132  138.4103  167.1630 C.2     1  UNL1        0.3157
      3 N         138.6104  138.3387  165.7888 N.2     1  UNL1       -0.0614
      4 C         139.6481  139.4161  165.6778 C.3     1  UNL1        0.2309
      5 C         139.6923  140.1535  166.9833 C.ar    1  UNL1        0.0390
      6 C         140.5220  141.3107  167.4548 C.ar    1  UNL1        0.0008
      7 C         140.3413  141.8463  168.8442 C.ar    1  UNL1        0.0021
      8 C         139.3309  141.2246  169.7621 C.ar    1  UNL1        0.0299
      9 C         138.5012  140.0674  169.2906 C.ar    1  UNL1        0.1470
     10 F         137.4907  139.4457  170.2085 F       1  UNL1       -0.2039
     11 C         138.6818  139.5319  167.9012 C.ar    1  UNL1        0.1094
     12 H         136.5580  136.8047  167.1395 H       1  UNL1        0.2884
     13 H         136.6082  137.6430  168.6236 H       1  UNL1        0.2884
     14 C         140.7236  140.3816  165.2763 C.ar    1  UNL1        0.0298
     15 C         142.1134  140.2240  165.8182 C.ar    1  UNL1        0.0027
     16 C         143.1889  141.1894  165.4166 C.ar    1  UNL1        0.0295
     17 C         142.8746  142.3125  164.4732 C.ar    1  UNL1        0.1402
     18 F         143.9501  143.2779  164.0717 F       1  UNL1       -0.2042
     19 C         141.4848  142.4701  163.9313 C.ar    1  UNL1        0.0303
     20 C         140.4093  141.5046  164.3328 C.ar    1  UNL1        0.0027
     21 C         141.1704  143.5931  162.9879 C.ar    1  UNL1        0.0405
     22 C         140.0920  144.5786  163.3281 C.ar    1  UNL1        0.1022
     23 N         139.7775  145.7016  162.3848 N.ar    1  UNL1       -0.2224
     24 C         140.5415  145.8391  161.1012 C.ar    1  UNL1        0.1989
     25 N         141.6199  144.8535  160.7610 N.ar    1  UNL1       -0.2224
     26 C         141.9344  143.7305  161.7044 C.ar    1  UNL1        0.1022
     27 C         139.8288  138.8805  164.2883 C.ar    1  UNL1        0.0327
     28 C         138.6313  138.6204  163.4232 C.ar    1  UNL1        0.0211
     29 C         138.8120  138.0848  162.0338 C.ar    1  UNL1        0.0986
     30 N         140.1902  137.8094  161.5095 N.ar    1  UNL1       -0.2399
     31 C         141.3876  138.0696  162.3746 C.ar    1  UNL1        0.1525
     32 C         141.2069  138.6051  163.7640 C.ar    1  UNL1        0.0235
     33 C         142.7657  137.7942  161.8503 C.3     1  UNL1        0.4348
     34 F         144.1439  137.5188  161.3260 F       1  UNL1       -0.1644
     35 F         142.1881  137.4619  160.5065 F       1  UNL1       -0.1644
     36 F         143.3434  138.1265  163.1941 F       1  UNL1       -0.1644
@<TRIPOS>BOND
     1     1     2    1
     2     2     3    2
     3     3     4    1
     4     4    27    1
     5    27    28   ar
     6    28    29   ar
     7    29    30   ar
     8    30    31   ar
     9    31    33    1
    10    33    34    1
    11    33    35    1
    12    33    36    1
    13    31    32   ar
    14     4    14    1
    15    14    15   ar
    16    15    16   ar
    17    16    17   ar
    18    17    18    1
    19    17    19   ar
    20    19    21    1
    21    21    22   ar
    22    22    23   ar
    23    23    24   ar
    24    24    25   ar
    25    25    26   ar
    26    19    20   ar
    27     4     5    1
    28     5     6   ar
    29     6     7   ar
    30     7     8   ar
    31     8     9   ar
    32     9    10    1
    33     9    11   ar
    34    11     2    1
    35    32    27   ar
    36    20    14   ar
    37    11     5   ar
    38    26    21   ar
    39     1    12    1
    40     1    13    1
@<TRIPOS>MOLECULE
*****
 36 40 0 0 0
SMALL
GASTEIGER

@<TRIPOS>ATOM
      1 N         143.3392  142.8980  170.0684 N.pl3   1  UNL1       -0.2464
      2 C         142.6792  142.1533  168.9460 C.2     1  UNL1        0.3157
      3 N         143.2087  142.0130  167.5495 N.2     1  UNL1       -0.0614
      4 C         142.2306  141.1911  166.7635 C.3     1  UNL1        0.2309
      5 C         141.0968  140.8234  167.6741 C.ar    1  UNL1        0.0390
      6 C         139.8477  140.0240  167.4493 C.ar    1  UNL1        0.0008
      7 C         138.8758  139.8192  168.5733 C.ar    1  UNL1        0.0021
      8 C         139.1531  140.4139  169.9222 C.ar    1  UNL1        0.0299
      9 C         140.4022  141.2134  170.1470 C.ar    1  UNL1        0.1470
     10 F         140.6795  141.8081  171.4959 F       1  UNL1       -0.2039
     11 C         141.3740  141.4181  169.0229 C.ar    1  UNL1        0.1094
     12 H         144.2002  143.3514  169.9191 H       1  UNL1        0.2884
     13 H         142.9112  142.9335  170.9543 H       1  UNL1        0.2884
     14 C         141.4558  140.4120  165.7424 C.ar    1  UNL1        0.0298
     15 C         141.3020  138.9271  165.8902 C.ar    1  UNL1        0.0027
     16 C         140.5271  138.1480  164.8692 C.ar    1  UNL1        0.0295
     17 C         139.9061  138.8537  163.7002 C.ar    1  UNL1        0.1402
     18 F         139.1312  138.0746  162.6792 F       1  UNL1       -0.2042
     19 C         140.0599  140.3384  163.5524 C.ar    1  UNL1        0.0303
     20 C         140.8347  141.1176  164.5735 C.ar    1  UNL1        0.0027
     21 C         139.4388  141.0441  162.3835 C.ar    1  UNL1        0.0405
     22 C         138.3960  142.0980  162.6115 C.ar    1  UNL1        0.1022
     23 N         137.7749  142.8038  161.4427 N.ar    1  UNL1       -0.2224
     24 C         138.1967  142.4557  160.0459 C.ar    1  UNL1        0.1989
     25 N         139.2396  141.4019  159.8179 N.ar    1  UNL1       -0.2224
     26 C         139.8606  140.6961  160.9868 C.ar    1  UNL1        0.1022
     27 C         143.2026  141.3958  165.6394 C.ar    1  UNL1        0.0327
     28 C         144.0565  140.2558  165.1692 C.ar    1  UNL1        0.0211
     29 C         145.0284  140.4607  164.0452 C.ar    1  UNL1        0.0986
     30 N         145.1462  141.8055  163.3913 N.ar    1  UNL1       -0.2399
     31 C         144.2923  142.9455  163.8615 C.ar    1  UNL1        0.1525
     32 C         143.3205  142.7407  164.9855 C.ar    1  UNL1        0.0235
     33 C         144.4102  144.2903  163.2076 C.3     1  UNL1        0.4348
     34 F         144.5281  145.6351  162.5537 F       1  UNL1       -0.1644
     35 F         144.7878  143.6289  161.9153 F       1  UNL1       -0.1644
     36 F         144.0326  144.9517  164.4999 F       1  UNL1       -0.1644
@<TRIPOS>BOND
     1     1     2    1
     2     2     3    2
     3     3     4    1
     4     4    27    1
     5    27    28   ar
     6    28    29   ar
     7    29    30   ar
     8    30    31   ar
     9    31    33    1
    10    33    34    1
    11    33    35    1
    12    33    36    1
    13    31    32   ar
    14     4    14    1
    15    14    15   ar
    16    15    16   ar
    17    16    17   ar
    18    17    18    1
    19    17    19   ar
    20    19    21    1
    21    21    22   ar
    22    22    23   ar
    23    23    24   ar
    24    24    25   ar
    25    25    26   ar
    26    19    20   ar
    27     4     5    1
    28     5     6   ar
    29     6     7   ar
    30     7     8   ar
    31     8     9   ar
    32     9    10    1
    33     9    11   ar
    34    11     2    1
    35    32    27   ar
    36    20    14   ar
    37    11     5   ar
    38    26    21   ar
    39     1    12    1
    40     1    13    1
@<TRIPOS>MOLECULE
*****
 36 40 0 0 0
SMALL
GASTEIGER

@<TRIPOS>ATOM
      1 N         140.5780  139.9754  158.3955 N.pl3   1  UNL1       -0.2464
      2 C         141.1465  140.4271  159.7081 C.2     1  UNL1        0.3157
      3 N         140.7907  141.6899  160.4352 N.2     1  UNL1       -0.0614
      4 C         141.5948  141.7384  161.7005 C.3     1  UNL1        0.2309
      5 C         142.4476  140.5056  161.7554 C.ar    1  UNL1        0.0390
      6 C         143.4407  140.0164  162.7675 C.ar    1  UNL1        0.0008
      7 C         144.1566  138.7167  162.5482 C.ar    1  UNL1        0.0021
      8 C         143.8795  137.9062  161.3168 C.ar    1  UNL1        0.0299
      9 C         142.8865  138.3955  160.3047 C.ar    1  UNL1        0.1470
     10 F         142.6093  137.5850  159.0733 F       1  UNL1       -0.2039
     11 C         142.1705  139.6952  160.5239 C.ar    1  UNL1        0.1094
     12 H         139.9068  140.5279  157.9335 H       1  UNL1        0.2884
     13 H         140.8762  139.1265  157.9959 H       1  UNL1        0.2884
     14 C         142.2493  142.0587  163.0116 C.ar    1  UNL1        0.0298
     15 C         143.4445  142.9642  163.0519 C.ar    1  UNL1        0.0027
     16 C         144.0990  143.2845  164.3630 C.ar    1  UNL1        0.0295
     17 C         143.5583  142.6993  165.6339 C.ar    1  UNL1        0.1402
     18 F         144.2128  143.0195  166.9450 F       1  UNL1       -0.2042
     19 C         142.3631  141.7937  165.5937 C.ar    1  UNL1        0.0303
     20 C         141.7086  141.4734  164.2825 C.ar    1  UNL1        0.0027
     21 C         141.8224  141.2084  166.8645 C.ar    1  UNL1        0.0405
     22 C         140.5027  141.6756  167.4033 C.ar    1  UNL1        0.1022
     23 N         139.9619  141.0904  168.6741 N.ar    1  UNL1       -0.2224
     24 C         140.7408  140.0380  169.4062 C.ar    1  UNL1        0.1989
     25 N         142.0604  139.5709  168.8674 N.ar    1  UNL1       -0.2224
     26 C         142.6012  140.1561  167.5965 C.ar    1  UNL1        0.1022
     27 C         140.8788  143.0382  161.9197 C.ar    1  UNL1        0.0327
     28 C         141.1680  144.2127  161.0327 C.ar    1  UNL1        0.0211
     29 C         140.4520  145.5123  161.2520 C.ar    1  UNL1        0.0986
     30 N         139.4468  145.6376  162.3583 N.ar    1  UNL1       -0.2399
     31 C         139.1577  144.4631  163.2454 C.ar    1  UNL1        0.1525
     32 C         139.8737  143.1634  163.0261 C.ar    1  UNL1        0.0235
     33 C         138.1525  144.5883  164.3517 C.3     1  UNL1        0.4348
     34 F         137.1474  144.7135  165.4581 F       1  UNL1       -0.1644
     35 F         139.2268  145.0893  165.2710 F       1  UNL1       -0.1644
     36 F         137.0783  144.0873  163.4324 F       1  UNL1       -0.1644
@<TRIPOS>BOND
     1     1     2    1
     2     2     3    2
     3     3     4    1
     4     4    27    1
     5    27    28   ar
     6    28    29   ar
     7    29    30   ar
     8    30    31   ar
     9    31    33    1
    10    33    34    1
    11    33    35    1
    12    33    36    1
    13    31    32   ar
    14     4    14    1
    15    14    15   ar
    16    15    16   ar
    17    16    17   ar
    18    17    18    1
    19    17    19   ar
    20    19    21    1
    21    21    22   ar
    22    22    23   ar
    23    23    24   ar
    24    24    25   ar
    25    25    26   ar
    26    19    20   ar
    27     4     5    1
    28     5     6   ar
    29     6     7   ar
    30     7     8   ar
    31     8     9   ar
    32     9    10    1
    33     9    11   ar
    34    11     2    1
    35    32    27   ar
    36    20    14   ar
    37    11     5   ar
    38    26    21   ar
    39     1    12    1
    40     1    13    1
