@<TRIPOS>MOLECULE
*****
 33 35 0 0 0
SMALL
GASTEIGER

@<TRIPOS>ATOM
      1 C         140.0140  144.2802  160.0958 C.3     1  UNL1        0.1371
      2 C         140.1675  144.6942  158.6623 C.3     1  UNL1        0.0274
      3 C         139.6011  143.8371  157.5693 C.3     1  UNL1        0.0265
      4 C         138.8812  142.5660  157.9099 C.3     1  UNL1        0.1104
      5 N         138.7276  142.1520  159.3434 N.ar    1  UNL1       -0.2804
      6 C         139.2940  143.0091  160.4363 C.ar    1  UNL1        0.1391
      7 N         139.1404  142.5951  161.8699 N.ar    1  UNL1       -0.2231
      8 C         138.4205  141.3240  162.2104 C.ar    1  UNL1        0.1740
      9 C         137.8541  140.4669  161.1175 C.ar    1  UNL1        0.2130
     10 O         137.1341  139.1958  161.4581 O.3     1  UNL1       -0.5006
     11 C         138.0077  140.8809  159.6840 C.ar    1  UNL1        0.2973
     12 O         137.4413  140.0238  158.5910 O.2     1  UNL1       -0.2636
     13 H         137.0382  138.9372  162.3535 H       1  UNL1        0.2924
     14 C         138.2669  140.9100  163.6440 C.2     1  UNL1        0.2671
     15 O         137.7612  141.8924  164.6584 O.2     1  UNL1       -0.2684
     16 N         138.6190  139.5134  164.0631 N.am    1  UNL1       -0.2956
     17 H         138.9509  138.8686  163.3973 H       1  UNL1        0.1501
     18 C         138.4655  139.0993  165.4966 C.3     1  UNL1        0.1166
     19 C         139.5578  139.3905  166.4825 C.ar    1  UNL1       -0.0024
     20 C         139.2139  139.7793  167.8898 C.ar    1  UNL1       -0.0003
     21 C         140.3062  140.0705  168.8758 C.ar    1  UNL1        0.0294
     22 C         141.7424  139.9729  168.4544 C.ar    1  UNL1        0.1401
     23 F         142.8348  140.2640  169.4403 F       1  UNL1       -0.2042
     24 C         142.0864  139.5841  167.0471 C.ar    1  UNL1        0.0294
     25 C         140.9940  139.2929  166.0612 C.ar    1  UNL1       -0.0003
     26 N         140.5804  145.1373  161.1888 N.3     1  UNL1       -0.1381
     27 C         139.8265  146.3447  161.6620 C.3     1  UNL1        0.1165
     28 S         141.9006  144.7870  161.8086 S.O2    1  UNL1        0.1025
     29 O         141.3397  145.0795  163.1687 O.2     1  UNL1       -0.1408
     30 O         142.4615  144.4945  160.4485 O.2     1  UNL1       -0.1408
     31 C         143.6505  145.1003  163.7033 C.3     1  UNL1        0.1161
     32 N         143.2209  144.4367  162.4285 N.3     1  UNL1       -0.1424
     33 C         144.1115  143.4229  161.7736 C.3     1  UNL1        0.1161
@<TRIPOS>BOND
     1    31    32    1
     2    32    33    1
     3    32    28    1
     4    28    29    2
     5    28    30    2
     6    28    26    1
     7    26    27    1
     8     1    26    1
     9     1     2    1
    10     2     3    1
    11     3     4    1
    12     4     5    1
    13     5     6   ar
    14     6     7   ar
    15     7     8   ar
    16     8    14    1
    17    14    15    2
    18    14    16   am
    19    16    18    1
    20    18    19    1
    21    19    20   ar
    22    20    21   ar
    23    21    22   ar
    24    22    23    1
    25    22    24   ar
    26    24    25   ar
    27     8     9   ar
    28     9    10    1
    29     9    11   ar
    30    11    12    2
    31     6     1    1
    32    25    19   ar
    33    11     5   ar
    34    16    17    1
    35    10    13    1
@<TRIPOS>MOLECULE
*****
 33 35 0 0 0
SMALL
GASTEIGER

@<TRIPOS>ATOM
      1 C         140.7503  144.5330  160.4390 C.3     1  UNL1        0.1371
      2 C         140.5430  144.7072  158.9637 C.3     1  UNL1        0.0274
      3 C         141.5981  144.2527  157.9993 C.3     1  UNL1        0.0265
      4 C         142.8605  143.6241  158.5102 C.3     1  UNL1        0.1104
      5 N         143.0678  143.4499  159.9855 N.ar    1  UNL1       -0.2804
      6 C         142.0127  143.9043  160.9499 C.ar    1  UNL1        0.1391
      7 N         142.2200  143.7301  162.4253 N.ar    1  UNL1       -0.2231
      8 C         143.4824  143.1014  162.9362 C.ar    1  UNL1        0.1740
      9 C         144.5375  142.6470  161.9718 C.ar    1  UNL1        0.2130
     10 O         145.8000  142.0182  162.4827 O.3     1  UNL1       -0.5006
     11 C         144.3303  142.8212  160.4964 C.ar    1  UNL1        0.2973
     12 O         145.3854  142.3667  159.5320 O.2     1  UNL1       -0.2636
     13 H         145.9295  141.9094  163.4043 H       1  UNL1        0.2924
     14 C         143.6898  142.9272  164.4116 C.2     1  UNL1        0.2671
     15 O         144.9644  143.3936  165.0501 O.2     1  UNL1       -0.2684
     16 N         142.6224  142.2865  165.2485 N.am    1  UNL1       -0.2956
     17 H         141.7858  141.9804  164.8294 H       1  UNL1        0.1501
     18 C         142.8297  142.1123  166.7238 C.3     1  UNL1        0.1166
     19 C         141.6903  141.6720  167.5944 C.ar    1  UNL1       -0.0024
     20 C         140.9184  140.4329  167.2498 C.ar    1  UNL1       -0.0003
     21 C         139.7790  139.9927  168.1204 C.ar    1  UNL1        0.0294
     22 C         139.4115  140.7915  169.3357 C.ar    1  UNL1        0.1401
     23 F         138.2722  140.3512  170.2063 F       1  UNL1       -0.2042
     24 C         140.1834  142.0306  169.6802 C.ar    1  UNL1        0.0294
     25 C         141.3228  142.4708  168.8096 C.ar    1  UNL1       -0.0003
     26 N         139.6952  144.9875  161.4035 N.3     1  UNL1       -0.1381
     27 C         139.4406  146.4524  161.6012 C.3     1  UNL1        0.1165
     28 S         138.8946  143.9770  162.1703 S.O2    1  UNL1        0.1025
     29 O         139.3015  144.6313  163.4573 O.2     1  UNL1       -0.1408
     30 O         138.4877  143.3228  160.8833 O.2     1  UNL1       -0.1408
     31 C         137.6689  141.6887  162.2765 C.3     1  UNL1        0.1161
     32 N         138.0940  142.9666  162.9371 N.3     1  UNL1       -0.1424
     33 C         137.7185  143.2340  164.3645 C.3     1  UNL1        0.1161
@<TRIPOS>BOND
     1    31    32    1
     2    32    33    1
     3    32    28    1
     4    28    29    2
     5    28    30    2
     6    28    26    1
     7    26    27    1
     8     1    26    1
     9     1     2    1
    10     2     3    1
    11     3     4    1
    12     4     5    1
    13     5     6   ar
    14     6     7   ar
    15     7     8   ar
    16     8    14    1
    17    14    15    2
    18    14    16   am
    19    16    18    1
    20    18    19    1
    21    19    20   ar
    22    20    21   ar
    23    21    22   ar
    24    22    23    1
    25    22    24   ar
    26    24    25   ar
    27     8     9   ar
    28     9    10    1
    29     9    11   ar
    30    11    12    2
    31     6     1    1
    32    25    19   ar
    33    11     5   ar
    34    16    17    1
    35    10    13    1
@<TRIPOS>MOLECULE
*****
 33 35 0 0 0
SMALL
GASTEIGER

@<TRIPOS>ATOM
      1 C         143.3660  142.4852  161.0242 C.3     1  UNL1        0.1371
      2 C         143.9924  142.7486  159.6870 C.3     1  UNL1        0.0274
      3 C         144.1882  141.6225  158.7156 C.3     1  UNL1        0.0265
      4 C         143.7575  140.2331  159.0814 C.3     1  UNL1        0.1104
      5 N         143.1310  139.9697  160.4186 N.ar    1  UNL1       -0.2804
      6 C         142.9353  141.0958  161.3900 C.ar    1  UNL1        0.1391
      7 N         142.3088  140.8323  162.7273 N.ar    1  UNL1       -0.2231
      8 C         141.8781  139.4429  163.0931 C.ar    1  UNL1        0.1740
      9 C         142.0739  138.3168  162.1217 C.ar    1  UNL1        0.2130
     10 O         141.6431  136.9273  162.4875 O.3     1  UNL1       -0.5006
     11 C         142.7003  138.5802  160.7845 C.ar    1  UNL1        0.2973
     12 O         142.8961  137.4541  159.8131 O.2     1  UNL1       -0.2636
     13 H         141.2518  136.7627  163.3228 H       1  UNL1        0.2924
     14 C         141.2516  139.1794  164.4303 C.2     1  UNL1        0.2671
     15 O         141.9468  138.2958  165.4232 O.2     1  UNL1       -0.2684
     16 N         139.9299  139.7997  164.7746 N.am    1  UNL1       -0.2956
     17 H         139.4737  140.3796  164.1229 H       1  UNL1        0.1501
     18 C         139.3035  139.5363  166.1118 C.3     1  UNL1        0.1166
     19 C         139.6094  140.4346  167.2734 C.ar    1  UNL1       -0.0024
     20 C         139.2455  140.0108  168.6655 C.ar    1  UNL1       -0.0003
     21 C         139.5514  140.9092  169.8271 C.ar    1  UNL1        0.0294
     22 C         140.2212  142.2314  169.5966 C.ar    1  UNL1        0.1401
     23 F         140.5271  143.1297  170.7582 F       1  UNL1       -0.2042
     24 C         140.5850  142.6552  168.2046 C.ar    1  UNL1        0.0294
     25 C         140.2791  141.7568  167.0429 C.ar    1  UNL1       -0.0003
     26 N         143.1702  143.6113  161.9956 N.3     1  UNL1       -0.1381
     27 C         144.3036  144.0484  162.8755 C.3     1  UNL1        0.1165
     28 S         141.8410  144.3003  162.0871 S.O2    1  UNL1        0.1025
     29 O         141.7251  143.8859  163.5240 O.2     1  UNL1       -0.1408
     30 O         141.9569  144.7148  160.6502 O.2     1  UNL1       -0.1408
     31 C         140.0859  145.9436  161.1025 C.3     1  UNL1        0.1161
     32 N         140.5117  144.9894  162.1787 N.3     1  UNL1       -0.1424
     33 C         139.6083  144.7242  163.3464 C.3     1  UNL1        0.1161
@<TRIPOS>BOND
     1    31    32    1
     2    32    33    1
     3    32    28    1
     4    28    29    2
     5    28    30    2
     6    28    26    1
     7    26    27    1
     8     1    26    1
     9     1     2    1
    10     2     3    1
    11     3     4    1
    12     4     5    1
    13     5     6   ar
    14     6     7   ar
    15     7     8   ar
    16     8    14    1
    17    14    15    2
    18    14    16   am
    19    16    18    1
    20    18    19    1
    21    19    20   ar
    22    20    21   ar
    23    21    22   ar
    24    22    23    1
    25    22    24   ar
    26    24    25   ar
    27     8     9   ar
    28     9    10    1
    29     9    11   ar
    30    11    12    2
    31     6     1    1
    32    25    19   ar
    33    11     5   ar
    34    16    17    1
    35    10    13    1
@<TRIPOS>MOLECULE
*****
 33 35 0 0 0
SMALL
GASTEIGER

@<TRIPOS>ATOM
      1 C         142.8148  141.9732  160.2949 C.3     1  UNL1        0.1371
      2 C         143.2622  142.5621  158.9899 C.3     1  UNL1        0.0274
      3 C         142.6741  143.8558  158.5100 C.3     1  UNL1        0.0265
      4 C         141.6386  144.5607  159.3350 C.3     1  UNL1        0.1104
      5 N         141.1912  143.9719  160.6400 N.ar    1  UNL1       -0.2804
      6 C         141.7793  142.6782  161.1200 C.ar    1  UNL1        0.1391
      7 N         141.3319  142.0894  162.4251 N.ar    1  UNL1       -0.2231
      8 C         140.2964  142.7943  163.2501 C.ar    1  UNL1        0.1740
      9 C         139.7082  144.0880  162.7701 C.ar    1  UNL1        0.2130
     10 O         138.6727  144.7929  163.5953 O.3     1  UNL1       -0.5006
     11 C         140.1556  144.6768  161.4651 C.ar    1  UNL1        0.2973
     12 O         139.5675  145.9706  160.9852 O.2     1  UNL1       -0.2636
     13 H         138.3932  144.4251  164.4105 H       1  UNL1        0.2924
     14 C         139.8489  142.2055  164.5552 C.2     1  UNL1        0.2671
     15 O         139.6461  143.0923  165.7478 O.2     1  UNL1       -0.2684
     16 N         139.6043  140.7298  164.6676 N.am    1  UNL1       -0.2956
     17 H         139.7374  140.1478  163.8848 H       1  UNL1        0.1501
     18 C         139.1569  140.1410  165.9726 C.3     1  UNL1        0.1166
     19 C         140.1373  139.9740  167.0954 C.ar    1  UNL1       -0.0024
     20 C         139.6721  140.0716  168.5181 C.ar    1  UNL1       -0.0003
     21 C         140.6526  139.9046  169.6409 C.ar    1  UNL1        0.0294
     22 C         142.0982  139.6399  169.3411 C.ar    1  UNL1        0.1401
     23 F         143.0787  139.4728  170.4640 F       1  UNL1       -0.2042
     24 C         142.5635  139.5422  167.9185 C.ar    1  UNL1        0.0294
     25 C         141.5830  139.7093  166.7956 C.ar    1  UNL1       -0.0003
     26 N         143.4030  140.6795  160.7749 N.3     1  UNL1       -0.1381
     27 C         143.2170  139.4271  159.9708 C.3     1  UNL1        0.1165
     28 S         144.1771  140.6383  162.0590 S.O2    1  UNL1        0.1025
     29 O         143.2667  139.5628  162.5733 O.2     1  UNL1       -0.1408
     30 O         145.0875  141.7137  161.5448 O.2     1  UNL1       -0.1408
     31 C         144.8016  139.4285  164.2719 C.3     1  UNL1        0.1161
     32 N         144.9512  140.5969  163.3432 N.3     1  UNL1       -0.1424
     33 C         145.8749  141.7240  163.6987 C.3     1  UNL1        0.1161
@<TRIPOS>BOND
     1    31    32    1
     2    32    33    1
     3    32    28    1
     4    28    29    2
     5    28    30    2
     6    28    26    1
     7    26    27    1
     8     1    26    1
     9     1     2    1
    10     2     3    1
    11     3     4    1
    12     4     5    1
    13     5     6   ar
    14     6     7   ar
    15     7     8   ar
    16     8    14    1
    17    14    15    2
    18    14    16   am
    19    16    18    1
    20    18    19    1
    21    19    20   ar
    22    20    21   ar
    23    21    22   ar
    24    22    23    1
    25    22    24   ar
    26    24    25   ar
    27     8     9   ar
    28     9    10    1
    29     9    11   ar
    30    11    12    2
    31     6     1    1
    32    25    19   ar
    33    11     5   ar
    34    16    17    1
    35    10    13    1
@<TRIPOS>MOLECULE
*****
 33 35 0 0 0
SMALL
GASTEIGER

@<TRIPOS>ATOM
      1 C         142.0806  143.7027  161.4479 C.3     1  UNL1        0.1371
      2 C         141.8211  144.3195  160.1055 C.3     1  UNL1        0.0274
      3 C         142.1614  143.5646  158.8548 C.3     1  UNL1        0.0265
      4 C         142.7613  142.1929  158.9465 C.3     1  UNL1        0.1104
      5 N         143.0208  141.5761  160.2889 N.ar    1  UNL1       -0.2804
      6 C         142.6804  142.3310  161.5396 C.ar    1  UNL1        0.1391
      7 N         142.9400  141.7141  162.8821 N.ar    1  UNL1       -0.2231
      8 C         143.5398  140.3423  162.9738 C.ar    1  UNL1        0.1740
      9 C         143.8802  139.5874  161.7231 C.ar    1  UNL1        0.2130
     10 O         144.4801  138.2156  161.8149 O.3     1  UNL1       -0.5006
     11 C         143.6207  140.2043  160.3807 C.ar    1  UNL1        0.2973
     12 O         143.9611  139.4494  159.1300 O.2     1  UNL1       -0.2636
     13 H         144.6422  137.8303  162.6535 H       1  UNL1        0.2924
     14 C         143.7994  139.7254  164.3163 C.2     1  UNL1        0.2671
     15 O         145.1677  139.2119  164.6538 O.2     1  UNL1       -0.2684
     16 N         142.6905  139.6220  165.3212 N.am    1  UNL1       -0.2956
     17 H         141.7924  139.9591  165.0996 H       1  UNL1        0.1501
     18 C         142.9500  139.0052  166.6636 C.3     1  UNL1        0.1166
     19 C         142.7435  139.8110  167.9118 C.ar    1  UNL1       -0.0024
     20 C         142.5312  139.1182  169.2252 C.ar    1  UNL1       -0.0003
     21 C         142.3248  139.9240  170.4734 C.ar    1  UNL1        0.0294
     22 C         142.3305  141.4225  170.4082 C.ar    1  UNL1        0.1401
     23 F         142.1240  142.2283  171.6565 F       1  UNL1       -0.2042
     24 C         142.5428  142.1153  169.0949 C.ar    1  UNL1        0.0294
     25 C         142.7493  141.3095  167.8466 C.ar    1  UNL1       -0.0003
     26 N         141.7402  144.4576  162.6986 N.3     1  UNL1       -0.1381
     27 C         142.7966  145.2552  163.4042 C.3     1  UNL1        0.1165
     28 S         140.3434  144.4149  163.2438 S.O2    1  UNL1        0.1025
     29 O         139.8322  145.0475  161.9835 O.2     1  UNL1       -0.1408
     30 O         140.8547  143.7823  164.5041 O.2     1  UNL1       -0.1408
     31 C         138.6835  144.7741  165.2099 C.3     1  UNL1        0.1161
     32 N         138.9466  144.3722  163.7889 N.3     1  UNL1       -0.1424
     33 C         137.8130  143.9276  162.9131 C.3     1  UNL1        0.1161
@<TRIPOS>BOND
     1    31    32    1
     2    32    33    1
     3    32    28    1
     4    28    29    2
     5    28    30    2
     6    28    26    1
     7    26    27    1
     8     1    26    1
     9     1     2    1
    10     2     3    1
    11     3     4    1
    12     4     5    1
    13     5     6   ar
    14     6     7   ar
    15     7     8   ar
    16     8    14    1
    17    14    15    2
    18    14    16   am
    19    16    18    1
    20    18    19    1
    21    19    20   ar
    22    20    21   ar
    23    21    22   ar
    24    22    23    1
    25    22    24   ar
    26    24    25   ar
    27     8     9   ar
    28     9    10    1
    29     9    11   ar
    30    11    12    2
    31     6     1    1
    32    25    19   ar
    33    11     5   ar
    34    16    17    1
    35    10    13    1
@<TRIPOS>MOLECULE
*****
 33 35 0 0 0
SMALL
GASTEIGER

@<TRIPOS>ATOM
      1 C         139.5395  141.0980  161.1386 C.3     1  UNL1        0.1371
      2 C         139.1745  140.9234  159.6942 C.3     1  UNL1        0.0274
      3 C         140.1508  140.2950  158.7445 C.3     1  UNL1        0.0265
      4 C         141.4921  139.8411  159.2392 C.3     1  UNL1        0.1104
      5 N         141.8572  140.0157  160.6836 N.ar    1  UNL1       -0.2804
      6 C         140.8808  140.6441  161.6333 C.ar    1  UNL1        0.1391
      7 N         141.2459  140.8186  163.0777 N.ar    1  UNL1       -0.2231
      8 C         142.5873  140.3647  163.5724 C.ar    1  UNL1        0.1740
      9 C         143.5636  139.7363  162.6227 C.ar    1  UNL1        0.2130
     10 O         144.9050  139.2824  163.1174 O.3     1  UNL1       -0.5006
     11 C         143.1986  139.5618  161.1783 C.ar    1  UNL1        0.2973
     12 O         144.1749  138.9334  160.2286 O.2     1  UNL1       -0.2636
     13 H         145.1330  139.3915  164.0197 H       1  UNL1        0.2924
     14 C         142.9524  140.5393  165.0168 C.2     1  UNL1        0.2671
     15 O         144.0313  141.5058  165.4062 O.2     1  UNL1       -0.2684
     16 N         142.2385  139.7472  166.0718 N.am    1  UNL1       -0.2956
     17 H         141.5304  139.1128  165.8162 H       1  UNL1        0.1501
     18 C         142.6035  139.9217  167.5162 C.3     1  UNL1        0.1166
     19 C         141.7499  140.7739  168.4078 C.ar    1  UNL1       -0.0024
     20 C         140.4587  140.2350  168.9484 C.ar    1  UNL1       -0.0003
     21 C         139.6051  141.0872  169.8401 C.ar    1  UNL1        0.0294
     22 C         140.0427  142.4783  170.1912 C.ar    1  UNL1        0.1401
     23 F         139.1891  143.3305  171.0829 F       1  UNL1       -0.2042
     24 C         141.3339  143.0172  169.6506 C.ar    1  UNL1        0.0294
     25 C         142.1875  142.1650  168.7589 C.ar    1  UNL1       -0.0003
     26 N         138.5632  141.7264  162.0883 N.3     1  UNL1       -0.1381
     27 C         137.3531  140.9610  162.5354 C.3     1  UNL1        0.1165
     28 S         138.7969  143.1202  162.5909 S.O2    1  UNL1        0.1025
     29 O         138.7157  142.6242  164.0041 O.2     1  UNL1       -0.1408
     30 O         138.8782  143.6162  161.1776 O.2     1  UNL1       -0.1408
     31 C         138.8953  144.8162  164.5566 C.3     1  UNL1        0.1161
     32 N         139.0307  144.5140  163.0936 N.3     1  UNL1       -0.1424
     33 C         139.3998  145.6056  162.1333 C.3     1  UNL1        0.1161
@<TRIPOS>BOND
     1    31    32    1
     2    32    33    1
     3    32    28    1
     4    28    29    2
     5    28    30    2
     6    28    26    1
     7    26    27    1
     8     1    26    1
     9     1     2    1
    10     2     3    1
    11     3     4    1
    12     4     5    1
    13     5     6   ar
    14     6     7   ar
    15     7     8   ar
    16     8    14    1
    17    14    15    2
    18    14    16   am
    19    16    18    1
    20    18    19    1
    21    19    20   ar
    22    20    21   ar
    23    21    22   ar
    24    22    23    1
    25    22    24   ar
    26    24    25   ar
    27     8     9   ar
    28     9    10    1
    29     9    11   ar
    30    11    12    2
    31     6     1    1
    32    25    19   ar
    33    11     5   ar
    34    16    17    1
    35    10    13    1
@<TRIPOS>MOLECULE
*****
 33 35 0 0 0
SMALL
GASTEIGER

@<TRIPOS>ATOM
      1 C         139.2689  140.4068  160.4238 C.3     1  UNL1        0.1371
      2 C         138.6103  140.3977  159.0762 C.3     1  UNL1        0.0274
      3 C         139.2187  139.6169  157.9492 C.3     1  UNL1        0.0265
      4 C         140.4858  138.8450  158.1699 C.3     1  UNL1        0.1104
      5 N         141.1444  138.8541  159.5175 N.ar    1  UNL1       -0.2804
      6 C         140.5359  139.6349  160.6445 C.ar    1  UNL1        0.1391
      7 N         141.1946  139.6439  161.9922 N.ar    1  UNL1       -0.2231
      8 C         142.4617  138.8720  162.2128 C.ar    1  UNL1        0.1740
      9 C         143.0702  138.0912  161.0859 C.ar    1  UNL1        0.2130
     10 O         144.3373  137.3193  161.3066 O.3     1  UNL1       -0.5006
     11 C         142.4116  138.0822  159.7382 C.ar    1  UNL1        0.2973
     12 O         143.0200  137.3013  158.6113 O.2     1  UNL1       -0.2636
     13 H         144.7487  137.3249  162.1484 H       1  UNL1        0.2924
     14 C         143.1204  138.8810  163.5605 C.2     1  UNL1        0.2671
     15 O         144.5591  139.2853  163.6894 O.2     1  UNL1       -0.2684
     16 N         142.3402  138.4857  164.7792 N.am    1  UNL1       -0.2956
     17 H         141.3960  138.2204  164.6945 H       1  UNL1        0.1501
     18 C         142.9988  138.4947  166.1268 C.3     1  UNL1        0.1166
     19 C         142.8547  139.6880  167.0241 C.ar    1  UNL1       -0.0024
     20 C         142.9348  141.0717  166.4506 C.ar    1  UNL1       -0.0003
     21 C         142.7906  142.2650  167.3479 C.ar    1  UNL1        0.0294
     22 C         142.5663  142.0747  168.8188 C.ar    1  UNL1        0.1401
     23 F         142.4221  143.2680  169.7161 F       1  UNL1       -0.2042
     24 C         142.4862  140.6910  169.3923 C.ar    1  UNL1        0.0294
     25 C         142.6303  139.4977  168.4949 C.ar    1  UNL1       -0.0003
     26 N         138.6604  141.1876  161.5508 N.3     1  UNL1       -0.1381
     27 C         137.7757  140.4999  162.5479 C.3     1  UNL1        0.1165
     28 S         138.9367  142.6562  161.6806 S.O2    1  UNL1        0.1025
     29 O         139.8569  142.3812  162.8328 O.2     1  UNL1       -0.1408
     30 O         138.0164  142.9312  160.5285 O.2     1  UNL1       -0.1408
     31 C         140.0427  144.8262  160.7763 C.3     1  UNL1        0.1161
     32 N         139.2130  144.1248  161.8106 N.3     1  UNL1       -0.1424
     33 C         138.6596  144.8920  162.9747 C.3     1  UNL1        0.1161
@<TRIPOS>BOND
     1    31    32    1
     2    32    33    1
     3    32    28    1
     4    28    29    2
     5    28    30    2
     6    28    26    1
     7    26    27    1
     8     1    26    1
     9     1     2    1
    10     2     3    1
    11     3     4    1
    12     4     5    1
    13     5     6   ar
    14     6     7   ar
    15     7     8   ar
    16     8    14    1
    17    14    15    2
    18    14    16   am
    19    16    18    1
    20    18    19    1
    21    19    20   ar
    22    20    21   ar
    23    21    22   ar
    24    22    23    1
    25    22    24   ar
    26    24    25   ar
    27     8     9   ar
    28     9    10    1
    29     9    11   ar
    30    11    12    2
    31     6     1    1
    32    25    19   ar
    33    11     5   ar
    34    16    17    1
    35    10    13    1
@<TRIPOS>MOLECULE
*****
 33 35 0 0 0
SMALL
GASTEIGER

@<TRIPOS>ATOM
      1 C         140.6400  143.5398  160.3024 C.3     1  UNL1        0.1371
      2 C         140.4153  143.7180  158.8301 C.3     1  UNL1        0.0274
      3 C         141.1764  142.8774  157.8481 C.3     1  UNL1        0.0265
      4 C         142.1621  141.8587  158.3385 C.3     1  UNL1        0.1104
      5 N         142.3868  141.6805  159.8108 N.ar    1  UNL1       -0.2804
      6 C         141.6257  142.5211  160.7927 C.ar    1  UNL1        0.1391
      7 N         141.8504  142.3429  162.2651 N.ar    1  UNL1       -0.2231
      8 C         142.8361  141.3241  162.7555 C.ar    1  UNL1        0.1740
      9 C         143.5972  140.4836  161.7735 C.ar    1  UNL1        0.2130
     10 O         144.5829  139.4648  162.2640 O.3     1  UNL1       -0.5006
     11 C         143.3725  140.6618  160.3012 C.ar    1  UNL1        0.2973
     12 O         144.1336  139.8212  159.3193 O.2     1  UNL1       -0.2636
     13 H         144.7233  139.3535  163.1837 H       1  UNL1        0.2924
     14 C         143.0608  141.1459  164.2279 C.2     1  UNL1        0.2671
     15 O         143.6033  139.8496  164.7523 O.2     1  UNL1       -0.2684
     16 N         142.7429  142.2641  165.1758 N.am    1  UNL1       -0.2956
     17 H         142.3868  143.1150  164.8316 H       1  UNL1        0.1501
     18 C         142.9675  142.0860  166.6481 C.3     1  UNL1        0.1166
     19 C         141.8281  141.6854  167.5376 C.ar    1  UNL1       -0.0024
     20 C         141.0962  140.4005  167.2862 C.ar    1  UNL1       -0.0003
     21 C         139.9567  140.0000  168.1757 C.ar    1  UNL1        0.0294
     22 C         139.5492  140.8843  169.3166 C.ar    1  UNL1        0.1401
     23 F         138.4097  140.4838  170.2061 F       1  UNL1       -0.2042
     24 C         140.2811  142.1692  169.5680 C.ar    1  UNL1        0.0294
     25 C         141.4205  142.5698  168.6785 C.ar    1  UNL1       -0.0003
     26 N         139.8789  144.3804  161.2843 N.3     1  UNL1       -0.1381
     27 C         140.0619  145.8691  161.2975 C.3     1  UNL1        0.1165
     28 S         138.9348  143.7322  162.2531 S.O2    1  UNL1        0.1025
     29 O         138.1918  143.1063  161.1103 O.2     1  UNL1       -0.1408
     30 O         139.6778  144.3582  163.3959 O.2     1  UNL1       -0.1408
     31 C         137.4071  141.7371  162.9132 C.3     1  UNL1        0.1161
     32 N         137.9907  143.0840  163.2219 N.3     1  UNL1       -0.1424
     33 C         137.6302  143.7827  164.4993 C.3     1  UNL1        0.1161
@<TRIPOS>BOND
     1    31    32    1
     2    32    33    1
     3    32    28    1
     4    28    29    2
     5    28    30    2
     6    28    26    1
     7    26    27    1
     8     1    26    1
     9     1     2    1
    10     2     3    1
    11     3     4    1
    12     4     5    1
    13     5     6   ar
    14     6     7   ar
    15     7     8   ar
    16     8    14    1
    17    14    15    2
    18    14    16   am
    19    16    18    1
    20    18    19    1
    21    19    20   ar
    22    20    21   ar
    23    21    22   ar
    24    22    23    1
    25    22    24   ar
    26    24    25   ar
    27     8     9   ar
    28     9    10    1
    29     9    11   ar
    30    11    12    2
    31     6     1    1
    32    25    19   ar
    33    11     5   ar
    34    16    17    1
    35    10    13    1
@<TRIPOS>MOLECULE
*****
 33 35 0 0 0
SMALL
GASTEIGER

@<TRIPOS>ATOM
      1 C         139.5707  142.1951  164.1202 C.3     1  UNL1        0.1371
      2 C         138.2311  142.5402  164.7000 C.3     1  UNL1        0.0274
      3 C         137.4824  143.7388  164.1970 C.3     1  UNL1        0.0265
      4 C         138.0734  144.5922  163.1143 C.3     1  UNL1        0.1104
      5 N         139.4130  144.2471  162.5345 N.ar    1  UNL1       -0.2804
      6 C         140.1617  143.0486  163.0375 C.ar    1  UNL1        0.1391
      7 N         141.5014  142.7035  162.4576 N.ar    1  UNL1       -0.2231
      8 C         142.0924  143.5569  161.3749 C.ar    1  UNL1        0.1740
      9 C         141.3437  144.7554  160.8720 C.ar    1  UNL1        0.2130
     10 O         141.9348  145.6089  159.7892 O.3     1  UNL1       -0.5006
     11 C         140.0041  145.1006  161.4517 C.ar    1  UNL1        0.2973
     12 O         139.2554  146.2991  160.9488 O.2     1  UNL1       -0.2636
     13 H         142.7716  145.3933  159.4270 H       1  UNL1        0.2924
     14 C         143.4321  143.2118  160.7951 C.2     1  UNL1        0.2671
     15 O         144.6442  143.1739  161.6779 O.2     1  UNL1       -0.2684
     16 N         143.5597  142.9046  159.3324 N.am    1  UNL1       -0.2956
     17 H         142.7641  142.9294  158.7530 H       1  UNL1        0.1501
     18 C         144.8993  142.5595  158.7526 C.3     1  UNL1        0.1166
     19 C         144.9881  141.6782  157.5420 C.ar    1  UNL1       -0.0024
     20 C         144.0088  140.5572  157.3570 C.ar    1  UNL1       -0.0003
     21 C         144.0976  139.6759  156.1464 C.ar    1  UNL1        0.0294
     22 C         145.1656  139.9157  155.1209 C.ar    1  UNL1        0.1401
     23 F         145.2544  139.0344  153.9103 F       1  UNL1       -0.2042
     24 C         146.1449  141.0367  155.3059 C.ar    1  UNL1        0.0294
     25 C         146.0561  141.9180  156.5164 C.ar    1  UNL1       -0.0003
     26 N         140.3194  140.9966  164.6232 N.3     1  UNL1       -0.1381
     27 C         141.6543  141.1695  165.2851 C.3     1  UNL1        0.1165
     28 S         139.7332  139.6251  164.4642 S.O2    1  UNL1        0.1025
     29 O         139.8966  139.7277  162.9767 O.2     1  UNL1       -0.1408
     30 O         139.5699  139.5225  165.9517 O.2     1  UNL1       -0.1408
     31 C         138.9951  137.6568  162.9374 C.3     1  UNL1        0.1161
     32 N         139.1470  138.2535  164.3052 N.3     1  UNL1       -0.1424
     33 C         138.7127  137.4787  165.5139 C.3     1  UNL1        0.1161
@<TRIPOS>BOND
     1    31    32    1
     2    32    33    1
     3    32    28    1
     4    28    29    2
     5    28    30    2
     6    28    26    1
     7    26    27    1
     8     1    26    1
     9     1     2    1
    10     2     3    1
    11     3     4    1
    12     4     5    1
    13     5     6   ar
    14     6     7   ar
    15     7     8   ar
    16     8    14    1
    17    14    15    2
    18    14    16   am
    19    16    18    1
    20    18    19    1
    21    19    20   ar
    22    20    21   ar
    23    21    22   ar
    24    22    23    1
    25    22    24   ar
    26    24    25   ar
    27     8     9   ar
    28     9    10    1
    29     9    11   ar
    30    11    12    2
    31     6     1    1
    32    25    19   ar
    33    11     5   ar
    34    16    17    1
    35    10    13    1
