@<TRIPOS>MOLECULE
*****
 28 30 0 0 0
SMALL
GASTEIGER

@<TRIPOS>ATOM
      1 C         140.2341  140.9140  165.0399 C.ar    1  UNL1        0.0587
      2 C         140.1433  142.1997  165.8071 C.ar    1  UNL1        0.0147
      3 C         141.3924  142.9480  166.1671 C.ar    1  UNL1        0.0024
      4 C         142.7323  142.4107  165.7599 C.ar    1  UNL1        0.0147
      5 C         142.8232  141.1249  164.9927 C.ar    1  UNL1        0.0587
      6 N         141.5741  140.3766  164.6327 N.ar    1  UNL1       -0.2540
      7 C         138.9850  140.1656  164.6799 C.3     1  UNL1        0.0496
      8 C         138.0995  139.6203  165.7610 C.3     1  UNL1        0.0536
      9 C         138.6977  138.8653  166.9108 C.3     1  UNL1        0.2058
     10 O         138.8061  139.5141  168.2588 O.3     1  UNL1       -0.4755
     11 CL        143.8789  142.2950  169.8505 Cl      1  UNL1       -0.0822
     12 C         142.6107  141.5998  169.4526 C.ar    1  UNL1        0.0579
     13 C         141.2833  142.1834  169.8363 C.ar    1  UNL1        0.0145
     14 C         140.0151  141.4882  169.4384 C.ar    1  UNL1        0.0378
     15 C         140.0743  140.2093  168.6568 C.ar    1  UNL1        0.1386
     16 C         141.4017  139.6257  168.2730 C.ar    1  UNL1        0.0378
     17 C         142.6699  140.3210  168.6709 C.ar    1  UNL1        0.0145
     18 C         144.1631  140.5876  164.5855 C.3     1  UNL1        0.0496
     19 C         145.2192  141.5191  164.0686 C.3     1  UNL1        0.0536
     20 C         145.2907  141.8328  162.6036 C.3     1  UNL1        0.2058
     21 O         144.8361  143.1706  162.1000 O.3     1  UNL1       -0.4755
     22 C         143.4527  143.6590  162.4124 C.ar    1  UNL1        0.1386
     23 C         143.2631  144.9129  163.2136 C.ar    1  UNL1        0.0378
     24 C         141.8797  145.4013  163.5259 C.ar    1  UNL1        0.0145
     25 C         140.6858  144.6359  163.0371 C.ar    1  UNL1        0.0579
     26 CL        139.3024  145.1244  163.3495 Cl      1  UNL1       -0.0822
     27 C         140.8754  143.3821  162.2359 C.ar    1  UNL1        0.0145
     28 C         142.2589  142.8936  161.9236 C.ar    1  UNL1        0.0378
@<TRIPOS>BOND
     1    11    12    1
     2    12    13   ar
     3    13    14   ar
     4    14    15   ar
     5    15    10    1
     6    10     9    1
     7     9     8    1
     8     8     7    1
     9     7     1    1
    10     1     2   ar
    11     2     3   ar
    12     3     4   ar
    13     4     5   ar
    14     5    18    1
    15    18    19    1
    16    19    20    1
    17    20    21    1
    18    21    22    1
    19    22    23   ar
    20    23    24   ar
    21    24    25   ar
    22    25    26    1
    23    25    27   ar
    24    27    28   ar
    25     5     6   ar
    26    15    16   ar
    27    16    17   ar
    28    17    12   ar
    29     6     1   ar
    30    28    22   ar
@<TRIPOS>MOLECULE
*****
 28 30 0 0 0
SMALL
GASTEIGER

@<TRIPOS>ATOM
      1 C         143.1200  140.7198  165.4330 C.ar    1  UNL1        0.0587
      2 C         142.9192  139.6435  166.4583 C.ar    1  UNL1        0.0147
      3 C         141.8028  139.7551  167.4539 C.ar    1  UNL1        0.0024
      4 C         140.8872  140.9428  167.4241 C.ar    1  UNL1        0.0147
      5 C         141.0881  142.0192  166.3988 C.ar    1  UNL1        0.0587
      6 N         142.2045  141.9076  165.4032 N.ar    1  UNL1       -0.2540
      7 C         144.2365  140.6082  164.4374 C.3     1  UNL1        0.0496
      8 C         144.4838  139.3086  163.7304 C.3     1  UNL1        0.0536
      9 C         143.9526  139.0962  162.3437 C.3     1  UNL1        0.2058
     10 O         142.7076  138.2866  162.1332 O.3     1  UNL1       -0.4755
     11 CL        138.0194  138.9814  165.8126 Cl      1  UNL1       -0.0822
     12 C         139.1915  138.8077  164.8928 C.ar    1  UNL1        0.0579
     13 C         140.0309  137.5673  164.9736 C.ar    1  UNL1        0.0145
     14 C         141.2029  137.3935  164.0537 C.ar    1  UNL1        0.0378
     15 C         141.5356  138.4603  163.0531 C.ar    1  UNL1        0.1386
     16 C         140.6961  139.7007  162.9723 C.ar    1  UNL1        0.0378
     17 C         139.5241  139.8744  163.8921 C.ar    1  UNL1        0.0145
     18 C         140.1725  143.2069  166.3691 C.3     1  UNL1        0.0496
     19 C         139.1222  143.3178  165.3040 C.3     1  UNL1        0.0536
     20 C         138.7441  144.6639  164.7607 C.3     1  UNL1        0.2058
     21 O         139.4278  145.1978  163.5370 O.3     1  UNL1       -0.4755
     22 C         140.7782  144.6758  163.1444 C.ar    1  UNL1        0.1386
     23 C         142.0188  145.3309  163.6752 C.ar    1  UNL1        0.0378
     24 C         143.3692  144.8090  163.2826 C.ar    1  UNL1        0.0145
     25 C         143.4790  143.6320  162.3593 C.ar    1  UNL1        0.0579
     26 CL        144.8293  143.1101  161.9667 Cl      1  UNL1       -0.0822
     27 C         142.2384  142.9769  161.8285 C.ar    1  UNL1        0.0145
     28 C         140.8880  143.4988  162.2210 C.ar    1  UNL1        0.0378
@<TRIPOS>BOND
     1    11    12    1
     2    12    13   ar
     3    13    14   ar
     4    14    15   ar
     5    15    10    1
     6    10     9    1
     7     9     8    1
     8     8     7    1
     9     7     1    1
    10     1     2   ar
    11     2     3   ar
    12     3     4   ar
    13     4     5   ar
    14     5    18    1
    15    18    19    1
    16    19    20    1
    17    20    21    1
    18    21    22    1
    19    22    23   ar
    20    23    24   ar
    21    24    25   ar
    22    25    26    1
    23    25    27   ar
    24    27    28   ar
    25     5     6   ar
    26    15    16   ar
    27    16    17   ar
    28    17    12   ar
    29     6     1   ar
    30    28    22   ar
@<TRIPOS>MOLECULE
*****
 28 30 0 0 0
SMALL
GASTEIGER

@<TRIPOS>ATOM
      1 C         141.1431  144.3843  164.3621 C.ar    1  UNL1        0.0587
      2 C         142.2989  145.1252  163.7578 C.ar    1  UNL1        0.0147
      3 C         143.7029  144.6657  164.0181 C.ar    1  UNL1        0.0024
      4 C         143.9510  143.4653  164.8825 C.ar    1  UNL1        0.0147
      5 C         142.7952  142.7243  165.4868 C.ar    1  UNL1        0.0587
      6 N         141.3912  143.1838  165.2266 N.ar    1  UNL1       -0.2540
      7 C         139.7391  144.8438  164.1019 C.3     1  UNL1        0.0496
      8 C         139.0404  144.4410  162.8371 C.3     1  UNL1        0.0536
      9 C         137.6778  143.8169  162.8992 C.3     1  UNL1        0.2058
     10 O         137.4404  142.4712  162.2805 O.3     1  UNL1       -0.4755
     11 CL        139.1284  137.4966  165.1795 Cl      1  UNL1       -0.0822
     12 C         138.7064  138.7403  164.4547 C.ar    1  UNL1        0.0579
     13 C         138.5538  140.0302  165.2048 C.ar    1  UNL1        0.0145
     14 C         138.1318  141.2739  164.4801 C.ar    1  UNL1        0.0378
     15 C         137.8624  141.2276  163.0053 C.ar    1  UNL1        0.1386
     16 C         138.0150  139.9376  162.2552 C.ar    1  UNL1        0.0378
     17 C         138.4370  138.6940  162.9799 C.ar    1  UNL1        0.0145
     18 C         143.0434  141.5238  166.3512 C.3     1  UNL1        0.0496
     19 C         142.0458  140.4041  166.3841 C.3     1  UNL1        0.0536
     20 C         142.4207  139.0499  165.8593 C.3     1  UNL1        0.2058
     21 O         142.3276  138.7628  164.3900 O.3     1  UNL1       -0.4755
     22 C         142.6691  139.8311  163.3939 C.ar    1  UNL1        0.1386
     23 C         141.5786  140.6489  162.7677 C.ar    1  UNL1        0.0378
     24 C         141.9201  141.7171  161.7717 C.ar    1  UNL1        0.0145
     25 C         143.3520  141.9677  161.4017 C.ar    1  UNL1        0.0579
     26 CL        143.6935  143.0359  160.4057 Cl      1  UNL1       -0.0822
     27 C         144.4425  141.1499  162.0279 C.ar    1  UNL1        0.0145
     28 C         144.1010  140.0816  163.0240 C.ar    1  UNL1        0.0378
@<TRIPOS>BOND
     1    11    12    1
     2    12    13   ar
     3    13    14   ar
     4    14    15   ar
     5    15    10    1
     6    10     9    1
     7     9     8    1
     8     8     7    1
     9     7     1    1
    10     1     2   ar
    11     2     3   ar
    12     3     4   ar
    13     4     5   ar
    14     5    18    1
    15    18    19    1
    16    19    20    1
    17    20    21    1
    18    21    22    1
    19    22    23   ar
    20    23    24   ar
    21    24    25   ar
    22    25    26    1
    23    25    27   ar
    24    27    28   ar
    25     5     6   ar
    26    15    16   ar
    27    16    17   ar
    28    17    12   ar
    29     6     1   ar
    30    28    22   ar
@<TRIPOS>MOLECULE
*****
 28 30 0 0 0
SMALL
GASTEIGER

@<TRIPOS>ATOM
      1 C         140.3581  144.1597  164.0191 C.ar    1  UNL1        0.0587
      2 C         139.1003  144.7976  164.5299 C.ar    1  UNL1        0.0147
      3 C         137.8488  143.9825  164.6686 C.ar    1  UNL1        0.0024
      4 C         137.8551  142.5294  164.2964 C.ar    1  UNL1        0.0147
      5 C         139.1129  141.8915  163.7855 C.ar    1  UNL1        0.0587
      6 N         140.3644  142.7066  163.6469 N.ar    1  UNL1       -0.2540
      7 C         141.6096  144.9749  163.8804 C.3     1  UNL1        0.0496
      8 C         142.5856  144.6698  162.7829 C.3     1  UNL1        0.0536
      9 C         144.0402  144.4889  163.1017 C.3     1  UNL1        0.2058
     10 O         144.7257  143.1968  162.7696 O.3     1  UNL1       -0.4755
     11 CL        143.4515  138.2353  165.8937 Cl      1  UNL1       -0.0822
     12 C         143.7700  139.4757  165.1127 C.ar    1  UNL1        0.0579
     13 C         144.4821  139.3711  163.7967 C.ar    1  UNL1        0.0145
     14 C         144.8007  140.6115  163.0156 C.ar    1  UNL1        0.0378
     15 C         144.4071  141.9564  163.5506 C.ar    1  UNL1        0.1386
     16 C         143.6950  142.0610  164.8666 C.ar    1  UNL1        0.0378
     17 C         143.3765  140.8206  165.6476 C.ar    1  UNL1        0.0145
     18 C         139.1192  140.4384  163.4133 C.3     1  UNL1        0.0496
     19 C         138.7556  139.4012  164.4341 C.3     1  UNL1        0.0536
     20 C         139.7142  139.0673  165.5384 C.3     1  UNL1        0.2058
     21 O         139.2850  139.1996  166.9696 O.3     1  UNL1       -0.4755
     22 C         139.6452  140.4290  167.7501 C.ar    1  UNL1        0.1386
     23 C         140.2133  141.6250  167.0453 C.ar    1  UNL1        0.0378
     24 C         140.5735  142.8544  167.8257 C.ar    1  UNL1        0.0145
     25 C         140.3656  142.8877  169.3109 C.ar    1  UNL1        0.0579
     26 CL        140.7257  144.1170  170.0912 Cl      1  UNL1       -0.0822
     27 C         139.7974  141.6916  170.0156 C.ar    1  UNL1        0.0145
     28 C         139.4372  140.4623  169.2352 C.ar    1  UNL1        0.0378
@<TRIPOS>BOND
     1    11    12    1
     2    12    13   ar
     3    13    14   ar
     4    14    15   ar
     5    15    10    1
     6    10     9    1
     7     9     8    1
     8     8     7    1
     9     7     1    1
    10     1     2   ar
    11     2     3   ar
    12     3     4   ar
    13     4     5   ar
    14     5    18    1
    15    18    19    1
    16    19    20    1
    17    20    21    1
    18    21    22    1
    19    22    23   ar
    20    23    24   ar
    21    24    25   ar
    22    25    26    1
    23    25    27   ar
    24    27    28   ar
    25     5     6   ar
    26    15    16   ar
    27    16    17   ar
    28    17    12   ar
    29     6     1   ar
    30    28    22   ar
@<TRIPOS>MOLECULE
*****
 28 30 0 0 0
SMALL
GASTEIGER

@<TRIPOS>ATOM
      1 C         141.6604  140.4426  164.8730 C.ar    1  UNL1        0.0587
      2 C         142.5999  141.4937  165.3855 C.ar    1  UNL1        0.0147
      3 C         142.0849  142.8632  165.7159 C.ar    1  UNL1        0.0024
      4 C         140.6305  143.1817  165.5339 C.ar    1  UNL1        0.0147
      5 C         139.6909  142.1306  165.0214 C.ar    1  UNL1        0.0587
      6 N         140.2059  140.7611  164.6910 N.ar    1  UNL1       -0.2540
      7 C         142.1754  139.0731  164.5426 C.3     1  UNL1        0.0496
      8 C         142.5662  138.1328  165.6441 C.3     1  UNL1        0.0536
      9 C         143.4972  138.5919  166.7269 C.3     1  UNL1        0.2058
     10 O         142.9884  138.7739  168.1262 O.3     1  UNL1       -0.4755
     11 CL        140.3765  143.9347  169.7211 Cl      1  UNL1       -0.0822
     12 C         141.0295  142.6445  169.3224 C.ar    1  UNL1        0.0579
     13 C         140.1924  141.5003  168.8326 C.ar    1  UNL1        0.0145
     14 C         140.8454  140.2101  168.4339 C.ar    1  UNL1        0.0378
     15 C         142.3354  140.0641  168.5249 C.ar    1  UNL1        0.1386
     16 C         143.1725  141.2084  169.0147 C.ar    1  UNL1        0.0378
     17 C         142.5195  142.4986  169.4134 C.ar    1  UNL1        0.0145
     18 C         138.2365  142.4491  164.8394 C.3     1  UNL1        0.0496
     19 C         137.8256  143.7562  164.2290 C.3     1  UNL1        0.0536
     20 C         137.7901  143.9090  162.7372 C.3     1  UNL1        0.2058
     21 O         138.8340  144.7322  162.0425 O.3     1  UNL1       -0.4755
     22 C         140.2798  144.3431  162.1345 C.ar    1  UNL1        0.1386
     23 C         141.2753  145.2923  162.7329 C.ar    1  UNL1        0.0378
     24 C         142.7210  144.9032  162.8249 C.ar    1  UNL1        0.0145
     25 C         143.1712  143.5649  162.3186 C.ar    1  UNL1        0.0579
     26 CL        144.6169  143.1758  162.4106 Cl      1  UNL1       -0.0822
     27 C         142.1757  142.6157  161.7203 C.ar    1  UNL1        0.0145
     28 C         140.7299  143.0048  161.6283 C.ar    1  UNL1        0.0378
@<TRIPOS>BOND
     1    11    12    1
     2    12    13   ar
     3    13    14   ar
     4    14    15   ar
     5    15    10    1
     6    10     9    1
     7     9     8    1
     8     8     7    1
     9     7     1    1
    10     1     2   ar
    11     2     3   ar
    12     3     4   ar
    13     4     5   ar
    14     5    18    1
    15    18    19    1
    16    19    20    1
    17    20    21    1
    18    21    22    1
    19    22    23   ar
    20    23    24   ar
    21    24    25   ar
    22    25    26    1
    23    25    27   ar
    24    27    28   ar
    25     5     6   ar
    26    15    16   ar
    27    16    17   ar
    28    17    12   ar
    29     6     1   ar
    30    28    22   ar
@<TRIPOS>MOLECULE
*****
 28 30 0 0 0
SMALL
GASTEIGER

@<TRIPOS>ATOM
      1 C         139.0627  143.2985  165.2791 C.ar    1  UNL1        0.0587
      2 C         140.1644  143.3639  166.2950 C.ar    1  UNL1        0.0147
      3 C         140.6918  142.1024  166.9118 C.ar    1  UNL1        0.0024
      4 C         140.1174  140.7754  166.5127 C.ar    1  UNL1        0.0147
      5 C         139.0157  140.7099  165.4968 C.ar    1  UNL1        0.0587
      6 N         138.4884  141.9715  164.8800 N.ar    1  UNL1       -0.2540
      7 C         138.5354  144.5600  164.6623 C.3     1  UNL1        0.0496
      8 C         138.1619  144.5854  163.2098 C.3     1  UNL1        0.0536
      9 C         139.1032  145.1783  162.2036 C.3     1  UNL1        0.2058
     10 O         140.2919  144.3927  161.7347 O.3     1  UNL1       -0.4755
     11 CL        144.8628  143.3466  165.4781 Cl      1  UNL1       -0.0822
     12 C         143.7200  143.6081  164.5422 C.ar    1  UNL1        0.0579
     13 C         143.3207  145.0180  164.2217 C.ar    1  UNL1        0.0145
     14 C         142.1780  145.2795  163.2859 C.ar    1  UNL1        0.0378
     15 C         141.4346  144.1312  162.6706 C.ar    1  UNL1        0.1386
     16 C         141.8339  142.7213  162.9911 C.ar    1  UNL1        0.0378
     17 C         142.9766  142.4598  163.9269 C.ar    1  UNL1        0.0145
     18 C         138.4414  139.3830  165.0978 C.3     1  UNL1        0.0496
     19 C         138.5687  138.9060  163.6813 C.3     1  UNL1        0.0536
     20 C         138.9788  137.4909  163.4004 C.3     1  UNL1        0.2058
     21 O         140.2482  137.2125  162.6513 O.3     1  UNL1       -0.4755
     22 C         141.5329  137.8513  163.0891 C.ar    1  UNL1        0.1386
     23 C         141.8481  137.9773  164.5502 C.ar    1  UNL1        0.0378
     24 C         143.1327  138.6160  164.9880 C.ar    1  UNL1        0.0145
     25 C         144.1022  139.1289  163.9647 C.ar    1  UNL1        0.0579
     26 CL        145.3868  139.7677  164.4025 Cl      1  UNL1       -0.0822
     27 C         143.7870  139.0030  162.5036 C.ar    1  UNL1        0.0145
     28 C         142.5023  138.3642  162.0658 C.ar    1  UNL1        0.0378
@<TRIPOS>BOND
     1    11    12    1
     2    12    13   ar
     3    13    14   ar
     4    14    15   ar
     5    15    10    1
     6    10     9    1
     7     9     8    1
     8     8     7    1
     9     7     1    1
    10     1     2   ar
    11     2     3   ar
    12     3     4   ar
    13     4     5   ar
    14     5    18    1
    15    18    19    1
    16    19    20    1
    17    20    21    1
    18    21    22    1
    19    22    23   ar
    20    23    24   ar
    21    24    25   ar
    22    25    26    1
    23    25    27   ar
    24    27    28   ar
    25     5     6   ar
    26    15    16   ar
    27    16    17   ar
    28    17    12   ar
    29     6     1   ar
    30    28    22   ar
@<TRIPOS>MOLECULE
*****
 28 30 0 0 0
SMALL
GASTEIGER

@<TRIPOS>ATOM
      1 C         141.4669  143.9448  163.3928 C.ar    1  UNL1        0.0587
      2 C         140.4197  144.3310  164.3950 C.ar    1  UNL1        0.0147
      3 C         140.2464  143.5239  165.6474 C.ar    1  UNL1        0.0024
      4 C         141.1201  142.3307  165.8977 C.ar    1  UNL1        0.0147
      5 C         142.1674  141.9445  164.8956 C.ar    1  UNL1        0.0587
      6 N         142.3407  142.7515  163.6431 N.ar    1  UNL1       -0.2540
      7 C         141.6403  144.7518  162.1404 C.3     1  UNL1        0.0496
      8 C         140.4371  145.2045  161.3673 C.3     1  UNL1        0.0536
      9 C         140.0778  144.5301  160.0765 C.3     1  UNL1        0.2058
     10 O         139.0542  143.4337  160.0627 O.3     1  UNL1       -0.4755
     11 CL        138.1392  140.1216  164.9813 Cl      1  UNL1       -0.0822
     12 C         138.3680  140.9496  163.7516 C.ar    1  UNL1        0.0579
     13 C         137.5240  142.1632  163.4969 C.ar    1  UNL1        0.0145
     14 C         137.7528  142.9913  162.2673 C.ar    1  UNL1        0.0378
     15 C         138.8255  142.6057  161.2923 C.ar    1  UNL1        0.1386
     16 C         139.6694  141.3921  161.5470 C.ar    1  UNL1        0.0378
     17 C         139.4407  140.5641  162.7767 C.ar    1  UNL1        0.0145
     18 C         143.0411  140.7513  165.1459 C.3     1  UNL1        0.0496
     19 C         142.4598  139.5111  165.7575 C.3     1  UNL1        0.0536
     20 C         143.2349  138.7511  166.7926 C.3     1  UNL1        0.2058
     21 O         142.9492  138.9639  168.2497 O.3     1  UNL1       -0.4755
     22 C         142.2778  140.2254  168.7058 C.ar    1  UNL1        0.1386
     23 C         140.7945  140.2476  168.9274 C.ar    1  UNL1        0.0378
     24 C         140.1231  141.5090  169.3835 C.ar    1  UNL1        0.0145
     25 C         140.9351  142.7483  169.6181 C.ar    1  UNL1        0.0579
     26 CL        140.2637  144.0097  170.0742 Cl      1  UNL1       -0.0822
     27 C         142.4185  142.7261  169.3965 C.ar    1  UNL1        0.0145
     28 C         143.0899  141.4646  168.9404 C.ar    1  UNL1        0.0378
@<TRIPOS>BOND
     1    11    12    1
     2    12    13   ar
     3    13    14   ar
     4    14    15   ar
     5    15    10    1
     6    10     9    1
     7     9     8    1
     8     8     7    1
     9     7     1    1
    10     1     2   ar
    11     2     3   ar
    12     3     4   ar
    13     4     5   ar
    14     5    18    1
    15    18    19    1
    16    19    20    1
    17    20    21    1
    18    21    22    1
    19    22    23   ar
    20    23    24   ar
    21    24    25   ar
    22    25    26    1
    23    25    27   ar
    24    27    28   ar
    25     5     6   ar
    26    15    16   ar
    27    16    17   ar
    28    17    12   ar
    29     6     1   ar
    30    28    22   ar
@<TRIPOS>MOLECULE
*****
 28 30 0 0 0
SMALL
GASTEIGER

@<TRIPOS>ATOM
      1 C         141.4259  141.1448  165.1072 C.ar    1  UNL1        0.0587
      2 C         142.6381  141.1497  165.9906 C.ar    1  UNL1        0.0147
      3 C         143.6675  142.2311  165.8455 C.ar    1  UNL1        0.0024
      4 C         143.4847  143.3075  164.8170 C.ar    1  UNL1        0.0147
      5 C         142.2724  143.3026  163.9335 C.ar    1  UNL1        0.0587
      6 N         141.2430  142.2213  164.0786 N.ar    1  UNL1       -0.2540
      7 C         140.3965  140.0635  165.2523 C.3     1  UNL1        0.0496
      8 C         139.1562  140.3120  166.0585 C.3     1  UNL1        0.0536
      9 C         138.8018  139.3951  167.1914 C.3     1  UNL1        0.2058
     10 O         139.0919  139.8031  168.6054 O.3     1  UNL1       -0.4755
     11 CL        144.2400  142.5863  169.9287 Cl      1  UNL1       -0.0822
     12 C         142.9530  141.8905  169.5978 C.ar    1  UNL1        0.0579
     13 C         141.7224  142.6934  169.2959 C.ar    1  UNL1        0.0145
     14 C         140.4354  141.9976  168.9651 C.ar    1  UNL1        0.0378
     15 C         140.3789  140.4989  168.9362 C.ar    1  UNL1        0.1386
     16 C         141.6094  139.6961  169.2382 C.ar    1  UNL1        0.0378
     17 C         142.8965  140.3919  169.5690 C.ar    1  UNL1        0.0145
     18 C         142.0896  144.3790  162.9050 C.3     1  UNL1        0.0496
     19 C         141.0901  145.4737  163.1345 C.3     1  UNL1        0.0536
     20 C         140.1429  145.8660  162.0397 C.3     1  UNL1        0.2058
     21 O         138.7522  145.3045  162.0140 O.3     1  UNL1       -0.4755
     22 C         138.5395  143.8231  162.1157 C.ar    1  UNL1        0.1386
     23 C         137.6703  143.2631  163.2024 C.ar    1  UNL1        0.0378
     24 C         137.4576  141.7818  163.3041 C.ar    1  UNL1        0.0145
     25 C         138.1142  140.8604  162.3191 C.ar    1  UNL1        0.0579
     26 CL        137.9015  139.3791  162.4208 Cl      1  UNL1       -0.0822
     27 C         138.9834  141.4204  161.2325 C.ar    1  UNL1        0.0145
     28 C         139.1961  142.9018  161.1308 C.ar    1  UNL1        0.0378
@<TRIPOS>BOND
     1    11    12    1
     2    12    13   ar
     3    13    14   ar
     4    14    15   ar
     5    15    10    1
     6    10     9    1
     7     9     8    1
     8     8     7    1
     9     7     1    1
    10     1     2   ar
    11     2     3   ar
    12     3     4   ar
    13     4     5   ar
    14     5    18    1
    15    18    19    1
    16    19    20    1
    17    20    21    1
    18    21    22    1
    19    22    23   ar
    20    23    24   ar
    21    24    25   ar
    22    25    26    1
    23    25    27   ar
    24    27    28   ar
    25     5     6   ar
    26    15    16   ar
    27    16    17   ar
    28    17    12   ar
    29     6     1   ar
    30    28    22   ar
@<TRIPOS>MOLECULE
*****
 28 30 0 0 0
SMALL
GASTEIGER

@<TRIPOS>ATOM
      1 C         142.2511  143.7853  164.4813 C.ar    1  UNL1        0.0587
      2 C         141.2453  144.7898  164.0024 C.ar    1  UNL1        0.0147
      3 C         139.8226  144.7085  164.4709 C.ar    1  UNL1        0.0024
      4 C         139.4058  143.6227  165.4181 C.ar    1  UNL1        0.0147
      5 C         140.4116  142.6182  165.8970 C.ar    1  UNL1        0.0587
      6 N         141.8343  142.6995  165.4286 N.ar    1  UNL1       -0.2540
      7 C         143.6738  143.8666  164.0129 C.3     1  UNL1        0.0496
      8 C         144.1096  143.0970  162.8013 C.3     1  UNL1        0.0536
      9 C         145.2838  142.1675  162.8856 C.3     1  UNL1        0.2058
     10 O         145.1745  140.7705  162.3504 O.3     1  UNL1       -0.4755
     11 CL        141.0499  137.0213  164.5711 Cl      1  UNL1       -0.0822
     12 C         142.0810  137.9586  164.0159 C.ar    1  UNL1        0.0579
     13 C         142.3622  137.9769  162.5426 C.ar    1  UNL1        0.0145
     14 C         143.3934  138.9142  161.9875 C.ar    1  UNL1        0.0378
     15 C         144.1433  139.8332  162.9056 C.ar    1  UNL1        0.1386
     16 C         143.8621  139.8149  164.3788 C.ar    1  UNL1        0.0378
     17 C         142.8310  138.8776  164.9340 C.ar    1  UNL1        0.0145
     18 C         139.9948  141.5324  166.8443 C.3     1  UNL1        0.0496
     19 C         139.7157  140.1523  166.3272 C.3     1  UNL1        0.0536
     20 C         138.4114  139.8552  165.6486 C.3     1  UNL1        0.2058
     21 O         138.3761  139.5980  164.1712 O.3     1  UNL1       -0.4755
     22 C         138.7347  140.6928  163.2106 C.ar    1  UNL1        0.1386
     23 C         137.6864  141.6643  162.7554 C.ar    1  UNL1        0.0378
     24 C         138.0449  142.7591  161.7947 C.ar    1  UNL1        0.0145
     25 C         139.4519  142.8824  161.2893 C.ar    1  UNL1        0.0579
     26 CL        139.8104  143.9772  160.3287 Cl      1  UNL1       -0.0822
     27 C         140.5002  141.9109  161.7445 C.ar    1  UNL1        0.0145
     28 C         140.1416  140.8161  162.7052 C.ar    1  UNL1        0.0378
@<TRIPOS>BOND
     1    11    12    1
     2    12    13   ar
     3    13    14   ar
     4    14    15   ar
     5    15    10    1
     6    10     9    1
     7     9     8    1
     8     8     7    1
     9     7     1    1
    10     1     2   ar
    11     2     3   ar
    12     3     4   ar
    13     4     5   ar
    14     5    18    1
    15    18    19    1
    16    19    20    1
    17    20    21    1
    18    21    22    1
    19    22    23   ar
    20    23    24   ar
    21    24    25   ar
    22    25    26    1
    23    25    27   ar
    24    27    28   ar
    25     5     6   ar
    26    15    16   ar
    27    16    17   ar
    28    17    12   ar
    29     6     1   ar
    30    28    22   ar
