@<TRIPOS>MOLECULE
*****
 23 26 0 0 0
SMALL
GASTEIGER

@<TRIPOS>ATOM
      1 N         143.3583  143.8495  171.3411 N.pl3   1  UNL1       -0.3375
      2 C         142.7662  143.0305  170.2327 C.ar    1  UNL1        0.1567
      3 N         143.4481  142.6599  168.9491 N.ar    1  UNL1       -0.2245
      4 C         142.4915  141.8387  168.1364 C.ar    1  UNL1        0.0889
      5 C         142.6153  141.1978  166.7858 C.ar    1  UNL1        0.0151
      6 C         141.4658  140.4201  166.2165 C.ar    1  UNL1       -0.0232
      7 C         140.1928  140.2832  166.9978 C.ar    1  UNL1       -0.0241
      8 C         140.0690  140.9239  168.3484 C.ar    1  UNL1        0.0035
      9 C         141.2184  141.7017  168.9177 C.ar    1  UNL1        0.0494
     10 S         141.3882  142.4383  170.2133 S.2     1  UNL1       -0.0520
     11 C         138.9360  139.5575  166.6184 C.3     1  UNL1        0.0434
     12 C         138.6420  138.7894  165.3638 C.3     1  UNL1        0.0772
     13 N         139.5321  138.5575  164.1791 N.3     1  UNL1       -0.2656
     14 C         140.9361  139.0362  163.9560 C.3     1  UNL1        0.0772
     15 C         141.7967  139.8651  164.8628 C.3     1  UNL1        0.0434
     16 H         144.2763  144.1961  171.2608 H       1  UNL1        0.1442
     17 H         142.8290  144.0405  172.1490 H       1  UNL1        0.1442
     18 C         138.9400  137.7385  163.0707 C.3     1  UNL1        0.1424
     19 C         138.7756  138.3337  161.7036 C.ar    1  UNL1        0.1970
     20 N         139.7741  138.2653  160.5863 N.ar    1  UNL1       -0.1856
     21 C         139.1994  138.9911  159.4061 C.ar    1  UNL1        0.3161
     22 O         137.8458  139.5081  159.7939 O.2     1  UNL1       -0.3277
     23 N         137.5838  139.1018  161.2139 N.ar    1  UNL1       -0.0586
@<TRIPOS>BOND
     1     1     2    1
     2     2     3   ar
     3     3     4   ar
     4     4     5   ar
     5     5     6   ar
     6     6     7   ar
     7     7     8   ar
     8     8     9   ar
     9     9    10   ar
    10     7    11    1
    11    11    12    1
    12    12    13    1
    13    13    18    1
    14    18    19    1
    15    19    20   ar
    16    20    21   ar
    17    21    22   ar
    18    22    23   ar
    19    13    14    1
    20    14    15    1
    21    10     2   ar
    22    23    19   ar
    23     9     4   ar
    24    15     6    1
    25     1    16    1
    26     1    17    1
@<TRIPOS>MOLECULE
*****
 23 26 0 0 0
SMALL
GASTEIGER

@<TRIPOS>ATOM
      1 N         143.9864  139.4959  171.4728 N.pl3   1  UNL1       -0.3375
      2 C         143.1494  139.9483  170.3131 C.ar    1  UNL1        0.1567
      3 N         142.6278  139.0769  169.2091 N.ar    1  UNL1       -0.2245
      4 C         141.8431  139.9416  168.2676 C.ar    1  UNL1        0.0889
      5 C         141.1000  139.6305  167.0023 C.ar    1  UNL1        0.0151
      6 C         140.3934  140.7252  166.2590 C.ar    1  UNL1       -0.0232
      7 C         140.4300  142.1308  166.7810 C.ar    1  UNL1       -0.0241
      8 C         141.1731  142.4420  168.0463 C.ar    1  UNL1        0.0035
      9 C         141.8797  141.3473  168.7896 C.ar    1  UNL1        0.0494
     10 S         142.6870  141.3514  170.0538 S.2     1  UNL1       -0.0520
     11 C         139.7984  143.3611  166.1998 C.3     1  UNL1        0.0434
     12 C         138.9742  143.4893  164.9530 C.3     1  UNL1        0.0772
     13 N         138.5782  142.4191  163.9797 N.3     1  UNL1       -0.2656
     14 C         138.9084  140.9562  164.0125 C.3     1  UNL1        0.0772
     15 C         139.7162  140.2024  165.0269 C.3     1  UNL1        0.0434
     16 H         144.2403  138.5484  171.5566 H       1  UNL1        0.1442
     17 H         144.2818  140.1465  172.1500 H       1  UNL1        0.1442
     18 C         137.7412  142.8715  162.8200 C.3     1  UNL1        0.1424
     19 C         138.3871  143.1666  161.4987 C.ar    1  UNL1        0.1970
     20 N         138.3849  142.2698  160.2963 N.ar    1  UNL1       -0.1856
     21 C         139.1451  142.9594  159.2025 C.ar    1  UNL1        0.3161
     22 O         139.6171  144.2824  159.7287 O.2     1  UNL1       -0.3277
     23 N         139.1486  144.4105  161.1480 N.ar    1  UNL1       -0.0586
@<TRIPOS>BOND
     1     1     2    1
     2     2     3   ar
     3     3     4   ar
     4     4     5   ar
     5     5     6   ar
     6     6     7   ar
     7     7     8   ar
     8     8     9   ar
     9     9    10   ar
    10     7    11    1
    11    11    12    1
    12    12    13    1
    13    13    18    1
    14    18    19    1
    15    19    20   ar
    16    20    21   ar
    17    21    22   ar
    18    22    23   ar
    19    13    14    1
    20    14    15    1
    21    10     2   ar
    22    23    19   ar
    23     9     4   ar
    24    15     6    1
    25     1    16    1
    26     1    17    1
@<TRIPOS>MOLECULE
*****
 23 26 0 0 0
SMALL
GASTEIGER

@<TRIPOS>ATOM
      1 N         142.6892  138.3613  170.4461 N.pl3   1  UNL1       -0.3375
      2 C         142.3869  139.3272  169.3390 C.ar    1  UNL1        0.1567
      3 N         143.2055  139.5311  168.0986 N.ar    1  UNL1       -0.2245
      4 C         142.5375  140.5887  167.2710 C.ar    1  UNL1        0.0889
      5 C         142.8915  141.2003  165.9478 C.ar    1  UNL1        0.0151
      6 C         142.0140  142.2618  165.3534 C.ar    1  UNL1       -0.0232
      7 C         140.7826  142.7116  166.0822 C.ar    1  UNL1       -0.0241
      8 C         140.4286  142.1001  167.4053 C.ar    1  UNL1        0.0035
      9 C         141.3060  141.0386  167.9997 C.ar    1  UNL1        0.0494
     10 S         141.2130  140.2590  169.2778 S.2     1  UNL1       -0.0520
     11 C         139.7784  143.7473  165.6710 C.3     1  UNL1        0.0434
     12 C         139.7578  144.5889  164.4295 C.3     1  UNL1        0.0772
     13 N         140.7361  144.6027  163.2926 N.3     1  UNL1       -0.2656
     14 C         141.9768  143.7782  163.1163 C.3     1  UNL1        0.0772
     15 C         142.5455  142.7364  164.0335 C.3     1  UNL1        0.0434
     16 H         143.4884  137.7886  170.3952 H       1  UNL1        0.1442
     17 H         142.0884  138.3001  171.2236 H       1  UNL1        0.1442
     18 C         140.4339  145.5686  162.1855 C.3     1  UNL1        0.1424
     19 C         140.4549  145.1050  160.7591 C.ar    1  UNL1        0.1970
     20 N         141.4722  145.4838  159.7238 N.ar    1  UNL1       -0.1856
     21 C         141.1083  144.7941  158.4424 C.ar    1  UNL1        0.3161
     22 O         139.8662  143.9892  158.6856 O.2     1  UNL1       -0.3277
     23 N         139.4623  144.1813  160.1175 N.ar    1  UNL1       -0.0586
@<TRIPOS>BOND
     1     1     2    1
     2     2     3   ar
     3     3     4   ar
     4     4     5   ar
     5     5     6   ar
     6     6     7   ar
     7     7     8   ar
     8     8     9   ar
     9     9    10   ar
    10     7    11    1
    11    11    12    1
    12    12    13    1
    13    13    18    1
    14    18    19    1
    15    19    20   ar
    16    20    21   ar
    17    21    22   ar
    18    22    23   ar
    19    13    14    1
    20    14    15    1
    21    10     2   ar
    22    23    19   ar
    23     9     4   ar
    24    15     6    1
    25     1    16    1
    26     1    17    1
@<TRIPOS>MOLECULE
*****
 23 26 0 0 0
SMALL
GASTEIGER

@<TRIPOS>ATOM
      1 N         144.0011  139.9087  158.7656 N.pl3   1  UNL1       -0.3375
      2 C         143.8369  140.0202  160.2524 C.ar    1  UNL1        0.1567
      3 N         143.8503  141.2917  161.0481 N.ar    1  UNL1       -0.2245
      4 C         143.6522  140.9371  162.4920 C.ar    1  UNL1        0.0889
      5 C         143.5779  141.7790  163.7313 C.ar    1  UNL1        0.0151
      6 C         143.3678  141.1301  165.0673 C.ar    1  UNL1       -0.0232
      7 C         143.2320  139.6395  165.1640 C.ar    1  UNL1       -0.0241
      8 C         143.3062  138.7976  163.9248 C.ar    1  UNL1        0.0035
      9 C         143.5163  139.4464  162.5888 C.ar    1  UNL1        0.0494
     10 S         143.6305  138.8797  161.2046 S.2     1  UNL1       -0.0520
     11 C         143.0189  138.7972  166.3868 C.3     1  UNL1        0.0434
     12 C         142.8890  139.2377  167.8149 C.3     1  UNL1        0.0772
     13 N         142.9402  140.6290  168.3727 N.3     1  UNL1       -0.2656
     14 C         143.1338  141.9238  167.6404 C.3     1  UNL1        0.0772
     15 C         143.3241  142.1468  166.1694 C.3     1  UNL1        0.0434
     16 H         144.1322  140.7194  158.2227 H       1  UNL1        0.1442
     17 H         143.9778  139.0248  158.3327 H       1  UNL1        0.1442
     18 C         142.7760  140.7405  169.8595 C.3     1  UNL1        0.1424
     19 C         141.6223  141.5103  170.4311 C.ar    1  UNL1        0.1970
     20 N         140.5126  142.1468  169.6480 N.ar    1  UNL1       -0.1856
     21 C         139.5804  142.8085  170.6192 C.ar    1  UNL1        0.3161
     22 O         140.1139  142.5809  172.0025 O.2     1  UNL1       -0.3277
     23 N         141.3760  141.7785  171.8863 N.ar    1  UNL1       -0.0586
@<TRIPOS>BOND
     1     1     2    1
     2     2     3   ar
     3     3     4   ar
     4     4     5   ar
     5     5     6   ar
     6     6     7   ar
     7     7     8   ar
     8     8     9   ar
     9     9    10   ar
    10     7    11    1
    11    11    12    1
    12    12    13    1
    13    13    18    1
    14    18    19    1
    15    19    20   ar
    16    20    21   ar
    17    21    22   ar
    18    22    23   ar
    19    13    14    1
    20    14    15    1
    21    10     2   ar
    22    23    19   ar
    23     9     4   ar
    24    15     6    1
    25     1    16    1
    26     1    17    1
@<TRIPOS>MOLECULE
*****
 23 26 0 0 0
SMALL
GASTEIGER

@<TRIPOS>ATOM
      1 N         140.1386  142.5359  171.4856 N.pl3   1  UNL1       -0.3375
      2 C         140.0516  141.9422  170.1108 C.ar    1  UNL1        0.1567
      3 N         139.3443  140.6718  169.7421 N.ar    1  UNL1       -0.2245
      4 C         139.5122  140.4593  168.2668 C.ar    1  UNL1        0.0889
      5 C         139.0313  139.3756  167.3478 C.ar    1  UNL1        0.0151
      6 C         139.3615  139.4311  165.8856 C.ar    1  UNL1       -0.0232
      7 C         140.1725  140.5700  165.3425 C.ar    1  UNL1       -0.0241
      8 C         140.6534  141.6536  166.2615 C.ar    1  UNL1        0.0035
      9 C         140.3232  141.5982  167.7237 C.ar    1  UNL1        0.0494
     10 S         140.6566  142.5147  168.8634 S.2     1  UNL1       -0.0520
     11 C         140.6102  140.8160  163.9290 C.3     1  UNL1        0.0434
     12 C         140.3449  139.9838  162.7095 C.3     1  UNL1        0.0772
     13 N         139.5764  138.7001  162.6024 N.3     1  UNL1       -0.2656
     14 C         138.8834  137.9315  163.6882 C.3     1  UNL1        0.0772
     15 C         138.7878  138.2568  165.1494 C.3     1  UNL1        0.0434
     16 H         139.7062  142.0833  172.2455 H       1  UNL1        0.1442
     17 H         140.6282  143.3781  171.6281 H       1  UNL1        0.1442
     18 C         139.4894  138.1065  161.2276 C.3     1  UNL1        0.1424
     19 C         138.9840  138.9347  160.0836 C.ar    1  UNL1        0.1970
     20 N         139.7436  139.2694  158.8342 N.ar    1  UNL1       -0.1856
     21 C         138.8592  140.1151  157.9667 C.ar    1  UNL1        0.3161
     22 O         137.5531  140.3030  158.6798 O.2     1  UNL1       -0.3277
     23 N         137.6301  139.5735  159.9882 N.ar    1  UNL1       -0.0586
@<TRIPOS>BOND
     1     1     2    1
     2     2     3   ar
     3     3     4   ar
     4     4     5   ar
     5     5     6   ar
     6     6     7   ar
     7     7     8   ar
     8     8     9   ar
     9     9    10   ar
    10     7    11    1
    11    11    12    1
    12    12    13    1
    13    13    18    1
    14    18    19    1
    15    19    20   ar
    16    20    21   ar
    17    21    22   ar
    18    22    23   ar
    19    13    14    1
    20    14    15    1
    21    10     2   ar
    22    23    19   ar
    23     9     4   ar
    24    15     6    1
    25     1    16    1
    26     1    17    1
@<TRIPOS>MOLECULE
*****
 23 26 0 0 0
SMALL
GASTEIGER

@<TRIPOS>ATOM
      1 N         139.5515  139.1238  171.7021 N.pl3   1  UNL1       -0.3375
      2 C         140.1216  139.8029  170.4922 C.ar    1  UNL1        0.1567
      3 N         139.4255  139.9918  169.1770 N.ar    1  UNL1       -0.2245
      4 C         140.3616  140.7179  168.2571 C.ar    1  UNL1        0.0889
      5 C         140.2180  141.1760  166.8360 C.ar    1  UNL1        0.0151
      6 C         141.3492  141.8941  166.1615 C.ar    1  UNL1       -0.0232
      7 C         142.6238  142.1541  166.9081 C.ar    1  UNL1       -0.0241
      8 C         142.7675  141.6960  168.3292 C.ar    1  UNL1        0.0035
      9 C         141.6364  140.9779  169.0037 C.ar    1  UNL1        0.0494
     10 S         141.4880  140.4124  170.3851 S.2     1  UNL1       -0.0520
     11 C         143.8645  142.8471  166.4277 C.3     1  UNL1        0.0434
     12 C         144.1366  143.4513  165.0819 C.3     1  UNL1        0.0772
     13 N         143.2355  143.5117  163.8844 N.3     1  UNL1       -0.2656
     14 C         141.8396  142.9828  163.7366 C.3     1  UNL1        0.0772
     15 C         141.0001  142.2629  164.7501 C.3     1  UNL1        0.0434
     16 H         138.6398  138.7532  171.6748 H       1  UNL1        0.1442
     17 H         140.0890  139.0488  172.5235 H       1  UNL1        0.1442
     18 C         143.8056  144.1907  162.6745 C.3     1  UNL1        0.1424
     19 C         143.7410  143.5169  161.3359 C.ar    1  UNL1        0.1970
     20 N         144.6142  142.3882  160.8739 N.ar    1  UNL1       -0.1856
     21 C         144.2046  142.0273  159.4768 C.ar    1  UNL1        0.3161
     22 O         143.0782  142.9329  159.0753 O.2     1  UNL1       -0.3277
     23 N         142.7917  143.8536  160.2244 N.ar    1  UNL1       -0.0586
@<TRIPOS>BOND
     1     1     2    1
     2     2     3   ar
     3     3     4   ar
     4     4     5   ar
     5     5     6   ar
     6     6     7   ar
     7     7     8   ar
     8     8     9   ar
     9     9    10   ar
    10     7    11    1
    11    11    12    1
    12    12    13    1
    13    13    18    1
    14    18    19    1
    15    19    20   ar
    16    20    21   ar
    17    21    22   ar
    18    22    23   ar
    19    13    14    1
    20    14    15    1
    21    10     2   ar
    22    23    19   ar
    23     9     4   ar
    24    15     6    1
    25     1    16    1
    26     1    17    1
@<TRIPOS>MOLECULE
*****
 23 26 0 0 0
SMALL
GASTEIGER

@<TRIPOS>ATOM
      1 N         140.6040  140.2559  171.8314 N.pl3   1  UNL1       -0.3375
      2 C         140.3671  140.6035  170.3915 C.ar    1  UNL1        0.1567
      3 N         139.7104  139.7243  169.3688 N.ar    1  UNL1       -0.2245
      4 C         139.6828  140.4687  168.0669 C.ar    1  UNL1        0.0889
      5 C         139.1578  140.1001  166.7109 C.ar    1  UNL1        0.0151
      6 C         139.2725  141.0707  165.5730 C.ar    1  UNL1       -0.0232
      7 C         139.9121  142.4098  165.7910 C.ar    1  UNL1       -0.0241
      8 C         140.4370  142.7785  167.1469 C.ar    1  UNL1        0.0035
      9 C         140.3224  141.8079  168.2849 C.ar    1  UNL1        0.0494
     10 S         140.7453  141.8912  169.7216 S.2     1  UNL1       -0.0520
     11 C         140.1257  143.5166  164.8012 C.3     1  UNL1        0.0434
     12 C         139.7524  143.5573  163.3489 C.3     1  UNL1        0.0772
     13 N         139.0734  142.5016  162.5279 N.3     1  UNL1       -0.2656
     14 C         138.5999  141.1442  162.9561 C.3     1  UNL1        0.0772
     15 C         138.6885  140.5074  164.3113 C.3     1  UNL1        0.0434
     16 H         140.3182  139.3807  172.1800 H       1  UNL1        0.1442
     17 H         141.0452  140.9031  172.4278 H       1  UNL1        0.1442
     18 C         138.8365  142.8492  161.0880 C.3     1  UNL1        0.1424
     19 C         139.8870  143.5870  160.3119 C.ar    1  UNL1        0.1970
     20 N         139.8772  145.0513  159.9866 N.ar    1  UNL1       -0.1856
     21 C         141.1158  145.3592  159.1985 C.ar    1  UNL1        0.3161
     22 O         141.8910  144.0853  159.0366 O.2     1  UNL1       -0.3277
     23 N         141.1315  142.9899  159.7247 N.ar    1  UNL1       -0.0586
@<TRIPOS>BOND
     1     1     2    1
     2     2     3   ar
     3     3     4   ar
     4     4     5   ar
     5     5     6   ar
     6     6     7   ar
     7     7     8   ar
     8     8     9   ar
     9     9    10   ar
    10     7    11    1
    11    11    12    1
    12    12    13    1
    13    13    18    1
    14    18    19    1
    15    19    20   ar
    16    20    21   ar
    17    21    22   ar
    18    22    23   ar
    19    13    14    1
    20    14    15    1
    21    10     2   ar
    22    23    19   ar
    23     9     4   ar
    24    15     6    1
    25     1    16    1
    26     1    17    1
@<TRIPOS>MOLECULE
*****
 23 26 0 0 0
SMALL
GASTEIGER

@<TRIPOS>ATOM
      1 N         140.2737  142.4982  171.4439 N.pl3   1  UNL1       -0.3375
      2 C         140.1217  141.9220  170.0673 C.ar    1  UNL1        0.1567
      3 N         140.5480  142.5751  168.7860 N.ar    1  UNL1       -0.2245
      4 C         140.2065  141.6482  167.6573 C.ar    1  UNL1        0.0889
      5 C         140.3935  141.7622  166.1733 C.ar    1  UNL1        0.0151
      6 C         139.9433  140.6500  165.2730 C.ar    1  UNL1       -0.0232
      7 C         139.3061  139.4240  165.8567 C.ar    1  UNL1       -0.0241
      8 C         139.1190  139.3100  167.3406 C.ar    1  UNL1        0.0035
      9 C         139.5693  140.4221  168.2409 C.ar    1  UNL1        0.0494
     10 S         139.5169  140.5913  169.7304 S.2     1  UNL1       -0.0520
     11 C         138.7899  138.2090  165.1444 C.3     1  UNL1        0.0434
     12 C         138.7836  137.9200  163.6724 C.3     1  UNL1        0.0772
     13 N         139.2918  138.7746  162.5494 N.3     1  UNL1       -0.2656
     14 C         139.9318  140.1293  162.6208 C.3     1  UNL1        0.0772
     15 C         140.2218  140.9640  163.8329 C.3     1  UNL1        0.0434
     16 H         140.6858  143.3843  171.5639 H       1  UNL1        0.1442
     17 H         139.9614  141.9904  172.2273 H       1  UNL1        0.1442
     18 C         139.1398  138.1983  161.1729 C.3     1  UNL1        0.1424
     19 C         139.1009  139.1065  159.9796 C.ar    1  UNL1        0.1970
     20 N         137.8931  139.8289  159.4605 N.ar    1  UNL1       -0.1856
     21 C         138.3088  140.6205  158.2561 C.ar    1  UNL1        0.3161
     22 O         139.7733  140.3874  158.0308 O.2     1  UNL1       -0.3277
     23 N         140.2629  139.4517  159.0961 N.ar    1  UNL1       -0.0586
@<TRIPOS>BOND
     1     1     2    1
     2     2     3   ar
     3     3     4   ar
     4     4     5   ar
     5     5     6   ar
     6     6     7   ar
     7     7     8   ar
     8     8     9   ar
     9     9    10   ar
    10     7    11    1
    11    11    12    1
    12    12    13    1
    13    13    18    1
    14    18    19    1
    15    19    20   ar
    16    20    21   ar
    17    21    22   ar
    18    22    23   ar
    19    13    14    1
    20    14    15    1
    21    10     2   ar
    22    23    19   ar
    23     9     4   ar
    24    15     6    1
    25     1    16    1
    26     1    17    1
@<TRIPOS>MOLECULE
*****
 23 26 0 0 0
SMALL
GASTEIGER

@<TRIPOS>ATOM
      1 N         140.2843  145.5484  158.4940 N.pl3   1  UNL1       -0.3375
      2 C         140.1512  144.7902  159.7814 C.ar    1  UNL1        0.1567
      3 N         139.2790  143.5920  160.0130 N.ar    1  UNL1       -0.2245
      4 C         139.4558  143.1585  161.4380 C.ar    1  UNL1        0.0889
      5 C         138.8498  142.0367  162.2283 C.ar    1  UNL1        0.0151
      6 C         139.2253  141.8453  163.6680 C.ar    1  UNL1       -0.0232
      7 C         140.2066  142.7755  164.3171 C.ar    1  UNL1       -0.0241
      8 C         140.8126  143.8972  163.5269 C.ar    1  UNL1        0.0035
      9 C         140.4371  144.0887  162.0873 C.ar    1  UNL1        0.0494
     10 S         140.8669  145.0972  161.0634 S.2     1  UNL1       -0.0520
     11 C         140.7145  142.7628  165.7285 C.3     1  UNL1        0.0434
     12 C         140.3663  141.8166  166.8393 C.3     1  UNL1        0.0772
     13 N         139.4245  140.6496  166.8129 N.3     1  UNL1       -0.2656
     14 C         138.5980  140.1404  165.6693 C.3     1  UNL1        0.0772
     15 C         138.5093  140.6725  164.2697 C.3     1  UNL1        0.0434
     16 H         139.7701  145.2684  157.7025 H       1  UNL1        0.1442
     17 H         140.8858  146.3259  158.4405 H       1  UNL1        0.1442
     18 C         139.2914  139.8915  168.1003 C.3     1  UNL1        0.1424
     19 C         139.9039  140.4345  169.3573 C.ar    1  UNL1        0.1970
     20 N         141.2856  140.1421  169.8626 N.ar    1  UNL1       -0.1856
     21 C         141.4777  140.8922  171.1473 C.ar    1  UNL1        0.3161
     22 O         140.2148  141.6482  171.4360 O.2     1  UNL1       -0.3277
     23 N         139.2420  141.3654  170.3298 N.ar    1  UNL1       -0.0586
@<TRIPOS>BOND
     1     1     2    1
     2     2     3   ar
     3     3     4   ar
     4     4     5   ar
     5     5     6   ar
     6     6     7   ar
     7     7     8   ar
     8     8     9   ar
     9     9    10   ar
    10     7    11    1
    11    11    12    1
    12    12    13    1
    13    13    18    1
    14    18    19    1
    15    19    20   ar
    16    20    21   ar
    17    21    22   ar
    18    22    23   ar
    19    13    14    1
    20    14    15    1
    21    10     2   ar
    22    23    19   ar
    23     9     4   ar
    24    15     6    1
    25     1    16    1
    26     1    17    1
