@<TRIPOS>MOLECULE
*****
 31 34 0 0 0
SMALL
GASTEIGER

@<TRIPOS>ATOM
      1 C         140.9722  141.7476  168.2448 C.3     1  UNL1        0.0840
      2 C         140.4911  142.9948  168.9253 C.3     1  UNL1        0.0095
      3 C         141.3344  143.6458  169.9812 C.3     1  UNL1        0.0005
      4 C         142.6587  143.0498  170.3566 C.3     1  UNL1        0.0005
      5 C         143.1397  141.8026  169.6761 C.3     1  UNL1        0.0082
      6 C         142.2965  141.1516  168.6202 C.3     1  UNL1        0.0705
      7 N         140.0967  141.6626  165.8001 N.am    1  UNL1       -0.2817
      8 C         140.1290  141.0965  167.1888 C.2     1  UNL1        0.2261
      9 O         139.3180  139.8793  167.5215 O.2     1  UNL1       -0.2748
     10 H         140.6290  142.4615  165.5817 H       1  UNL1        0.1549
     11 C         137.5033  142.9887  164.3287 C.3     1  UNL1        0.0553
     12 C         138.0615  141.6211  164.0678 C.ar    1  UNL1        0.0938
     13 N         137.5256  140.6229  163.0847 N.ar    1  UNL1       -0.1723
     14 N         138.3865  139.3964  163.1535 N.ar    1  UNL1       -0.2464
     15 C         138.2103  138.1488  162.3396 C.3     1  UNL1        0.1538
     16 C         139.4544  139.6367  164.1790 C.ar    1  UNL1        0.1110
     17 C         139.2536  141.0116  164.7441 C.ar    1  UNL1        0.0847
     18 C         142.7776  139.9044  167.9396 C.2     1  UNL1        0.1731
     19 O         143.0352  138.6637  168.7422 O.2     1  UNL1       -0.2913
     20 C         143.0010  139.8979  166.4563 C.ar    1  UNL1        0.0347
     21 C         143.4651  141.1442  165.7623 C.ar    1  UNL1        0.0029
     22 C         143.6885  141.1377  164.2791 C.ar    1  UNL1        0.0016
     23 C         143.4477  139.8850  163.4898 C.ar    1  UNL1        0.0171
     24 C         142.9837  138.6388  164.1838 C.ar    1  UNL1        0.0016
     25 C         142.7603  138.6453  165.6671 C.ar    1  UNL1        0.0029
     26 C         143.6711  139.8785  162.0065 C.ar    1  UNL1        0.0754
     27 C         143.3706  141.0067  161.0647 C.ar    1  UNL1        0.0409
     28 C         143.7480  140.5682  159.6808 C.ar    1  UNL1        0.1214
     29 N         144.2818  139.1690  159.7672 N.ar    1  UNL1       -0.1711
     30 N         144.2343  138.7428  161.2046 N.ar    1  UNL1       -0.2757
     31 H         144.5221  137.8708  161.5595 H       1  UNL1        0.1889
@<TRIPOS>BOND
     1    11    12    1
     2    12    13   ar
     3    13    14   ar
     4    14    15    1
     5    14    16   ar
     6    16    17   ar
     7    17     7    1
     8     7     8   am
     9     8     9    2
    10     1     8    1
    11     1     2    1
    12     2     3    1
    13     3     4    1
    14     4     5    1
    15     5     6    1
    16     6    18    1
    17    18    19    2
    18    18    20    1
    19    20    21   ar
    20    21    22   ar
    21    22    23   ar
    22    23    26    1
    23    26    27   ar
    24    27    28   ar
    25    28    29   ar
    26    29    30   ar
    27    23    24   ar
    28    24    25   ar
    29    17    12   ar
    30     6     1    1
    31    25    20   ar
    32    30    26   ar
    33     7    10    1
    34    30    31    1
@<TRIPOS>MOLECULE
*****
 31 34 0 0 0
SMALL
GASTEIGER

@<TRIPOS>ATOM
      1 C         140.6798  140.4927  167.8825 C.3     1  UNL1        0.0840
      2 C         139.5705  139.9006  168.7002 C.3     1  UNL1        0.0095
      3 C         139.0050  140.6636  169.8612 C.3     1  UNL1        0.0005
      4 C         139.5488  142.0188  170.2045 C.3     1  UNL1        0.0005
      5 C         140.6581  142.6109  169.3867 C.3     1  UNL1        0.0082
      6 C         141.2236  141.8479  168.2257 C.3     1  UNL1        0.0705
      7 N         140.5372  139.7423  165.3992 N.am    1  UNL1       -0.2817
      8 C         141.2454  139.7297  166.7214 C.2     1  UNL1        0.2261
      9 O         142.5192  138.9541  166.8826 O.2     1  UNL1       -0.2748
     10 H         139.7012  140.2514  165.2934 H       1  UNL1        0.1549
     11 C         138.9834  137.4533  163.6686 C.3     1  UNL1        0.0553
     12 C         140.3885  137.9272  163.4427 C.ar    1  UNL1        0.0938
     13 N         141.3261  137.4321  162.3817 N.ar    1  UNL1       -0.1723
     14 N         142.6198  138.1784  162.5213 N.ar    1  UNL1       -0.2464
     15 C         143.8377  137.9997  161.6642 C.3     1  UNL1        0.1538
     16 C         142.4817  139.1346  163.6687 C.ar    1  UNL1        0.1110
     17 C         141.1027  138.9794  164.2382 C.ar    1  UNL1        0.0847
     18 C         142.3330  142.4401  167.4079 C.2     1  UNL1        0.1731
     19 O         143.7064  142.5780  167.9951 O.2     1  UNL1       -0.2913
     20 C         142.0689  142.8942  166.0029 C.ar    1  UNL1        0.0347
     21 C         143.1857  142.9241  165.0019 C.ar    1  UNL1        0.0029
     22 C         142.9216  143.3783  163.5969 C.ar    1  UNL1        0.0016
     23 C         141.5407  143.8026  163.1930 C.ar    1  UNL1        0.0171
     24 C         140.4240  143.7728  164.1940 C.ar    1  UNL1        0.0016
     25 C         140.6881  143.3186  165.5989 C.ar    1  UNL1        0.0029
     26 C         141.2766  144.2568  161.7880 C.ar    1  UNL1        0.0754
     27 C         139.9946  144.0784  161.0300 C.ar    1  UNL1        0.0409
     28 C         140.1738  144.6805  159.6678 C.ar    1  UNL1        0.1214
     29 N         141.5666  145.2310  159.5840 N.ar    1  UNL1       -0.1711
     30 N         142.2482  144.9691  160.8943 N.ar    1  UNL1       -0.2757
     31 H         143.1711  145.2207  161.1269 H       1  UNL1        0.1889
@<TRIPOS>BOND
     1    11    12    1
     2    12    13   ar
     3    13    14   ar
     4    14    15    1
     5    14    16   ar
     6    16    17   ar
     7    17     7    1
     8     7     8   am
     9     8     9    2
    10     1     8    1
    11     1     2    1
    12     2     3    1
    13     3     4    1
    14     4     5    1
    15     5     6    1
    16     6    18    1
    17    18    19    2
    18    18    20    1
    19    20    21   ar
    20    21    22   ar
    21    22    23   ar
    22    23    26    1
    23    26    27   ar
    24    27    28   ar
    25    28    29   ar
    26    29    30   ar
    27    23    24   ar
    28    24    25   ar
    29    17    12   ar
    30     6     1    1
    31    25    20   ar
    32    30    26   ar
    33     7    10    1
    34    30    31    1
@<TRIPOS>MOLECULE
*****
 31 34 0 0 0
SMALL
GASTEIGER

@<TRIPOS>ATOM
      1 C         141.5915  139.6326  167.3318 C.3     1  UNL1        0.0840
      2 C         142.5934  139.5553  168.4454 C.3     1  UNL1        0.0095
      3 C         142.1587  139.7851  169.8625 C.3     1  UNL1        0.0005
      4 C         140.7221  140.0922  170.1659 C.3     1  UNL1        0.0005
      5 C         139.7203  140.1694  169.0523 C.3     1  UNL1        0.0082
      6 C         140.1550  139.9396  167.6352 C.3     1  UNL1        0.0705
      7 N         142.6629  140.5154  165.1356 N.am    1  UNL1       -0.2817
      8 C         142.0262  139.4028  165.9146 C.2     1  UNL1        0.2261
      9 O         141.8242  138.0604  165.2764 O.2     1  UNL1       -0.2748
     10 H         142.7955  141.3964  165.5545 H       1  UNL1        0.1549
     11 C         145.6006  141.2070  163.8943 C.3     1  UNL1        0.0553
     12 C         144.4479  140.6035  163.1480 C.ar    1  UNL1        0.0938
     13 N         144.4431  140.2120  161.7000 N.ar    1  UNL1       -0.1723
     14 N         143.0898  139.6521  161.3756 N.ar    1  UNL1       -0.2464
     15 C         142.6461  139.1372  160.0385 C.3     1  UNL1        0.1538
     16 C         142.2583  139.6976  162.6231 C.ar    1  UNL1        0.1110
     17 C         143.0976  140.2856  163.7185 C.ar    1  UNL1        0.0847
     18 C         139.1531  140.0169  166.5214 C.2     1  UNL1        0.1731
     19 O         138.0183  139.0377  166.4642 O.2     1  UNL1       -0.2913
     20 C         139.2862  141.0733  165.4649 C.ar    1  UNL1        0.0347
     21 C         139.7169  142.4601  165.8410 C.ar    1  UNL1        0.0029
     22 C         139.8499  143.5165  164.7845 C.ar    1  UNL1        0.0016
     23 C         139.5524  143.1862  163.3518 C.ar    1  UNL1        0.0171
     24 C         139.1217  141.7994  162.9758 C.ar    1  UNL1        0.0016
     25 C         138.9886  140.7430  164.0323 C.ar    1  UNL1        0.0029
     26 C         139.6854  144.2426  162.2953 C.ar    1  UNL1        0.0754
     27 C         140.6083  144.1965  161.1137 C.ar    1  UNL1        0.0409
     28 C         140.4122  145.4560  160.3230 C.ar    1  UNL1        0.1214
     29 N         139.3682  146.2805  161.0159 N.ar    1  UNL1       -0.1711
     30 N         138.9191  145.5306  162.2349 N.ar    1  UNL1       -0.2757
     31 H         138.2404  145.8310  162.8817 H       1  UNL1        0.1889
@<TRIPOS>BOND
     1    11    12    1
     2    12    13   ar
     3    13    14   ar
     4    14    15    1
     5    14    16   ar
     6    16    17   ar
     7    17     7    1
     8     7     8   am
     9     8     9    2
    10     1     8    1
    11     1     2    1
    12     2     3    1
    13     3     4    1
    14     4     5    1
    15     5     6    1
    16     6    18    1
    17    18    19    2
    18    18    20    1
    19    20    21   ar
    20    21    22   ar
    21    22    23   ar
    22    23    26    1
    23    26    27   ar
    24    27    28   ar
    25    28    29   ar
    26    29    30   ar
    27    23    24   ar
    28    24    25   ar
    29    17    12   ar
    30     6     1    1
    31    25    20   ar
    32    30    26   ar
    33     7    10    1
    34    30    31    1
@<TRIPOS>MOLECULE
*****
 31 34 0 0 0
SMALL
GASTEIGER

@<TRIPOS>ATOM
      1 C         139.6118  140.1269  162.1489 C.3     1  UNL1        0.0840
      2 C         138.5911  140.6051  161.1593 C.3     1  UNL1        0.0095
      3 C         137.4455  139.7165  160.7747 C.3     1  UNL1        0.0005
      4 C         137.3206  138.3496  161.3797 C.3     1  UNL1        0.0005
      5 C         138.3413  137.8714  162.3694 C.3     1  UNL1        0.0082
      6 C         139.4869  138.7600  162.7539 C.3     1  UNL1        0.0705
      7 N         140.5425  142.1381  163.5050 N.am    1  UNL1       -0.2817
      8 C         140.7574  141.0155  162.5335 C.2     1  UNL1        0.2261
      9 O         142.1179  140.7816  161.9467 O.2     1  UNL1       -0.2748
     10 H         139.6496  142.2916  163.8901 H       1  UNL1        0.1549
     11 C         141.0401  145.1881  162.4566 C.3     1  UNL1        0.0553
     12 C         141.9168  144.4286  163.4077 C.ar    1  UNL1        0.0938
     13 N         143.1761  144.9378  164.0439 N.ar    1  UNL1       -0.1723
     14 N         143.7258  143.8506  164.9191 N.ar    1  UNL1       -0.2464
     15 C         144.9756  143.9304  165.7446 C.3     1  UNL1        0.1538
     16 C         142.8061  142.6695  164.8237 C.ar    1  UNL1        0.1110
     17 C         141.6881  143.0267  163.8896 C.ar    1  UNL1        0.0847
     18 C         140.5077  138.2818  163.7436 C.2     1  UNL1        0.1731
     19 O         141.5123  137.2428  163.3422 O.2     1  UNL1       -0.2913
     20 C         140.5238  138.8426  165.1347 C.ar    1  UNL1        0.0347
     21 C         139.2340  139.0766  165.8641 C.ar    1  UNL1        0.0029
     22 C         139.2501  139.6374  167.2552 C.ar    1  UNL1        0.0016
     23 C         140.5560  139.9643  167.9170 C.ar    1  UNL1        0.0171
     24 C         141.8457  139.7304  167.1876 C.ar    1  UNL1        0.0016
     25 C         141.8296  139.1696  165.7965 C.ar    1  UNL1        0.0029
     26 C         140.5721  140.5251  169.3081 C.ar    1  UNL1        0.0754
     27 C         140.7432  141.9696  169.6745 C.ar    1  UNL1        0.0409
     28 C         140.6968  142.0772  171.1699 C.ar    1  UNL1        0.1214
     29 N         140.4970  140.6992  171.7278 N.ar    1  UNL1       -0.1711
     30 N         140.4200  139.7400  170.5771 N.ar    1  UNL1       -0.2757
     31 H         140.2921  138.7661  170.6432 H       1  UNL1        0.1889
@<TRIPOS>BOND
     1    11    12    1
     2    12    13   ar
     3    13    14   ar
     4    14    15    1
     5    14    16   ar
     6    16    17   ar
     7    17     7    1
     8     7     8   am
     9     8     9    2
    10     1     8    1
    11     1     2    1
    12     2     3    1
    13     3     4    1
    14     4     5    1
    15     5     6    1
    16     6    18    1
    17    18    19    2
    18    18    20    1
    19    20    21   ar
    20    21    22   ar
    21    22    23   ar
    22    23    26    1
    23    26    27   ar
    24    27    28   ar
    25    28    29   ar
    26    29    30   ar
    27    23    24   ar
    28    24    25   ar
    29    17    12   ar
    30     6     1    1
    31    25    20   ar
    32    30    26   ar
    33     7    10    1
    34    30    31    1
@<TRIPOS>MOLECULE
*****
 31 34 0 0 0
SMALL
GASTEIGER

@<TRIPOS>ATOM
      1 C         141.9773  141.7479  167.4283 C.3     1  UNL1        0.0840
      2 C         142.9582  142.4535  168.3169 C.3     1  UNL1        0.0095
      3 C         143.4170  141.8066  169.5901 C.3     1  UNL1        0.0005
      4 C         142.8948  140.4540  169.9746 C.3     1  UNL1        0.0005
      5 C         141.9138  139.7483  169.0859 C.3     1  UNL1        0.0082
      6 C         141.4551  140.3953  167.8127 C.3     1  UNL1        0.0705
      7 N         140.1900  143.0894  166.1031 N.am    1  UNL1       -0.2817
      8 C         141.5185  142.3948  166.1550 C.2     1  UNL1        0.2261
      9 O         142.3881  142.3471  164.9338 O.2     1  UNL1       -0.2748
     10 H         139.6192  143.1208  166.9047 H       1  UNL1        0.1549
     11 C         137.5374  142.2752  164.3855 C.3     1  UNL1        0.0553
     12 C         138.5119  143.3621  164.0405 C.ar    1  UNL1        0.0938
     13 N         138.4382  144.2656  162.8453 N.ar    1  UNL1       -0.1723
     14 N         139.6120  145.1982  162.8962 N.ar    1  UNL1       -0.2464
     15 C         139.9306  146.2698  161.8961 C.3     1  UNL1        0.1538
     16 C         140.4110  144.8712  164.1228 C.ar    1  UNL1        0.1110
     17 C         139.7312  143.7364  164.8300 C.ar    1  UNL1        0.0847
     18 C         140.4741  139.6897  166.9240 C.2     1  UNL1        0.1731
     19 O         139.1045  139.3548  167.4358 O.2     1  UNL1       -0.2913
     20 C         140.8627  139.3189  165.5235 C.ar    1  UNL1        0.0347
     21 C         139.9231  139.5932  164.3868 C.ar    1  UNL1        0.0029
     22 C         140.3118  139.2225  162.9863 C.ar    1  UNL1        0.0016
     23 C         141.6401  138.5775  162.7224 C.ar    1  UNL1        0.0171
     24 C         142.5797  138.3033  163.8590 C.ar    1  UNL1        0.0016
     25 C         142.1910  138.6740  165.2595 C.ar    1  UNL1        0.0029
     26 C         142.0288  138.2068  161.3219 C.ar    1  UNL1        0.0754
     27 C         141.3607  138.6829  160.0661 C.ar    1  UNL1        0.0409
     28 C         142.0728  138.0653  158.8993 C.ar    1  UNL1        0.1214
     29 N         143.1811  137.2074  159.4339 N.ar    1  UNL1       -0.1711
     30 N         143.1538  137.2949  160.9311 N.ar    1  UNL1       -0.2757
     31 H         143.7668  136.8346  161.5489 H       1  UNL1        0.1889
@<TRIPOS>BOND
     1    11    12    1
     2    12    13   ar
     3    13    14   ar
     4    14    15    1
     5    14    16   ar
     6    16    17   ar
     7    17     7    1
     8     7     8   am
     9     8     9    2
    10     1     8    1
    11     1     2    1
    12     2     3    1
    13     3     4    1
    14     4     5    1
    15     5     6    1
    16     6    18    1
    17    18    19    2
    18    18    20    1
    19    20    21   ar
    20    21    22   ar
    21    22    23   ar
    22    23    26    1
    23    26    27   ar
    24    27    28   ar
    25    28    29   ar
    26    29    30   ar
    27    23    24   ar
    28    24    25   ar
    29    17    12   ar
    30     6     1    1
    31    25    20   ar
    32    30    26   ar
    33     7    10    1
    34    30    31    1
@<TRIPOS>MOLECULE
*****
 31 34 0 0 0
SMALL
GASTEIGER

@<TRIPOS>ATOM
      1 C         142.0339  141.7095  167.8617 C.3     1  UNL1        0.0840
      2 C         143.0508  142.3563  168.7547 C.3     1  UNL1        0.0095
      3 C         143.5318  141.6430  169.9834 C.3     1  UNL1        0.0005
      4 C         142.9959  140.2828  170.3191 C.3     1  UNL1        0.0005
      5 C         141.9790  139.6359  169.4261 C.3     1  UNL1        0.0082
      6 C         141.4980  140.3493  168.1974 C.3     1  UNL1        0.0705
      7 N         142.4056  142.4497  165.3992 N.am    1  UNL1       -0.2817
      8 C         141.5529  142.4228  166.6329 C.2     1  UNL1        0.2261
      9 O         140.2192  143.1092  166.6380 O.2     1  UNL1       -0.2748
     10 H         143.2810  141.9992  165.3959 H       1  UNL1        0.1549
     11 C         143.7067  145.1547  164.1187 C.3     1  UNL1        0.0553
     12 C         142.5227  144.4063  163.5819 C.ar    1  UNL1        0.0938
     13 N         141.7289  144.7700  162.3622 N.ar    1  UNL1       -0.1723
     14 N         140.6402  143.7514  162.1970 N.ar    1  UNL1       -0.2464
     15 C         139.6112  143.7297  161.1058 C.3     1  UNL1        0.1538
     16 C         140.7612  142.7582  163.3145 C.ar    1  UNL1        0.1110
     17 C         141.9247  143.1630  164.1705 C.ar    1  UNL1        0.0847
     18 C         140.4811  139.7024  167.3043 C.2     1  UNL1        0.1731
     19 O         139.1060  139.4062  167.8250 O.2     1  UNL1       -0.2913
     20 C         140.8394  139.3519  165.8905 C.ar    1  UNL1        0.0347
     21 C         142.2270  138.8865  165.5619 C.ar    1  UNL1        0.0029
     22 C         142.5853  138.5359  164.1481 C.ar    1  UNL1        0.0016
     23 C         141.5560  138.6509  163.0630 C.ar    1  UNL1        0.0171
     24 C         140.1684  139.1163  163.3917 C.ar    1  UNL1        0.0016
     25 C         139.8102  139.4668  164.8055 C.ar    1  UNL1        0.0029
     26 C         141.9143  138.3003  161.6492 C.ar    1  UNL1        0.0754
     27 C         141.3335  138.9201  160.4129 C.ar    1  UNL1        0.0409
     28 C         141.9765  138.2713  159.2231 C.ar    1  UNL1        0.1214
     29 N         142.9548  137.2505  159.7241 N.ar    1  UNL1       -0.1711
     30 N         142.9163  137.2685  161.2235 N.ar    1  UNL1       -0.2757
     31 H         143.4543  136.7024  161.8230 H       1  UNL1        0.1889
@<TRIPOS>BOND
     1    11    12    1
     2    12    13   ar
     3    13    14   ar
     4    14    15    1
     5    14    16   ar
     6    16    17   ar
     7    17     7    1
     8     7     8   am
     9     8     9    2
    10     1     8    1
    11     1     2    1
    12     2     3    1
    13     3     4    1
    14     4     5    1
    15     5     6    1
    16     6    18    1
    17    18    19    2
    18    18    20    1
    19    20    21   ar
    20    21    22   ar
    21    22    23   ar
    22    23    26    1
    23    26    27   ar
    24    27    28   ar
    25    28    29   ar
    26    29    30   ar
    27    23    24   ar
    28    24    25   ar
    29    17    12   ar
    30     6     1    1
    31    25    20   ar
    32    30    26   ar
    33     7    10    1
    34    30    31    1
@<TRIPOS>MOLECULE
*****
 31 34 0 0 0
SMALL
GASTEIGER

@<TRIPOS>ATOM
      1 C         142.2518  140.0786  161.7980 C.3     1  UNL1        0.0840
      2 C         141.7554  139.1980  160.6898 C.3     1  UNL1        0.0095
      3 C         142.5446  137.9896  160.2815 C.3     1  UNL1        0.0005
      4 C         143.8302  137.6617  160.9813 C.3     1  UNL1        0.0005
      5 C         144.3266  138.5423  162.0895 C.3     1  UNL1        0.0082
      6 C         143.5374  139.7508  162.4978 C.3     1  UNL1        0.0705
      7 N         140.2535  141.1330  163.0807 N.am    1  UNL1       -0.2817
      8 C         141.4626  141.2872  162.2063 C.2     1  UNL1        0.2261
      9 O         141.8825  142.6497  161.7404 O.2     1  UNL1       -0.2748
     10 H         139.9780  140.2387  163.3865 H       1  UNL1        0.1549
     11 C         138.0889  142.7258  161.2295 C.3     1  UNL1        0.0553
     12 C         138.4694  143.0736  162.6382 C.ar    1  UNL1        0.0938
     13 N         137.9216  144.2146  163.4433 N.ar    1  UNL1       -0.1723
     14 N         138.5781  144.1876  164.7918 N.ar    1  UNL1       -0.2464
     15 C         138.3255  145.1494  165.9147 C.3     1  UNL1        0.1538
     16 C         139.5316  143.0300  164.8200 C.ar    1  UNL1        0.1110
     17 C         139.4644  142.3415  163.4891 C.ar    1  UNL1        0.0847
     18 C         144.0338  140.6314  163.6060 C.2     1  UNL1        0.1731
     19 O         145.1948  141.5513  163.3702 O.2     1  UNL1       -0.2913
     20 C         143.3690  140.5922  164.9501 C.ar    1  UNL1        0.0347
     21 C         143.0692  139.2740  165.6003 C.ar    1  UNL1        0.0029
     22 C         142.4044  139.2347  166.9444 C.ar    1  UNL1        0.0016
     23 C         142.0395  140.5136  167.6383 C.ar    1  UNL1        0.0171
     24 C         142.3394  141.8317  166.9881 C.ar    1  UNL1        0.0016
     25 C         143.0041  141.8709  165.6440 C.ar    1  UNL1        0.0029
     26 C         141.3748  140.4743  168.9824 C.ar    1  UNL1        0.0754
     27 C         141.8694  141.1432  170.2305 C.ar    1  UNL1        0.0409
     28 C         140.8990  140.8416  171.3339 C.ar    1  UNL1        0.1214
     29 N         139.8046  139.9862  170.7676 N.ar    1  UNL1       -0.1711
     30 N         140.0987  139.7592  169.3143 N.ar    1  UNL1       -0.2757
     31 H         139.5504  139.2332  168.6883 H       1  UNL1        0.1889
@<TRIPOS>BOND
     1    11    12    1
     2    12    13   ar
     3    13    14   ar
     4    14    15    1
     5    14    16   ar
     6    16    17   ar
     7    17     7    1
     8     7     8   am
     9     8     9    2
    10     1     8    1
    11     1     2    1
    12     2     3    1
    13     3     4    1
    14     4     5    1
    15     5     6    1
    16     6    18    1
    17    18    19    2
    18    18    20    1
    19    20    21   ar
    20    21    22   ar
    21    22    23   ar
    22    23    26    1
    23    26    27   ar
    24    27    28   ar
    25    28    29   ar
    26    29    30   ar
    27    23    24   ar
    28    24    25   ar
    29    17    12   ar
    30     6     1    1
    31    25    20   ar
    32    30    26   ar
    33     7    10    1
    34    30    31    1
@<TRIPOS>MOLECULE
*****
 31 34 0 0 0
SMALL
GASTEIGER

@<TRIPOS>ATOM
      1 C         142.4994  142.4508  164.1217 C.3     1  UNL1        0.0840
      2 C         142.0455  143.8653  164.3292 C.3     1  UNL1        0.0095
      3 C         142.8225  144.9982  163.7270 C.3     1  UNL1        0.0005
      4 C         144.0534  144.7167  162.9174 C.3     1  UNL1        0.0005
      5 C         144.5074  143.3022  162.7099 C.3     1  UNL1        0.0082
      6 C         143.7304  142.1692  163.3121 C.3     1  UNL1        0.0705
      7 N         140.4797  140.8181  164.0486 N.am    1  UNL1       -0.2817
      8 C         141.7224  141.3178  164.7239 C.2     1  UNL1        0.2261
      9 O         142.1881  140.6844  166.0014 O.2     1  UNL1       -0.2748
     10 H         140.1741  141.2338  163.2101 H       1  UNL1        0.1549
     11 C         140.4148  137.7433  162.9574 C.3     1  UNL1        0.0553
     12 C         139.6729  138.2718  164.1491 C.ar    1  UNL1        0.0938
     13 N         138.7709  137.4797  165.0485 N.ar    1  UNL1       -0.1723
     14 N         138.2432  138.4036  166.1060 N.ar    1  UNL1       -0.2464
     15 C         137.3044  138.0300  167.2147 C.3     1  UNL1        0.1538
     16 C         138.8191  139.7666  165.8601 C.ar    1  UNL1        0.1110
     17 C         139.7027  139.6852  164.6507 C.ar    1  UNL1        0.0847
     18 C         144.1843  140.7546  163.1046 C.2     1  UNL1        0.1731
     19 O         145.0935  140.1044  164.1049 O.2     1  UNL1       -0.2913
     20 C         143.7289  139.9904  161.8969 C.ar    1  UNL1        0.0347
     21 C         143.8772  138.4983  161.8538 C.ar    1  UNL1        0.0029
     22 C         143.4218  137.7340  160.6461 C.ar    1  UNL1        0.0016
     23 C         142.8183  138.4618  159.4815 C.ar    1  UNL1        0.0171
     24 C         142.6701  139.9538  159.5247 C.ar    1  UNL1        0.0016
     25 C         143.1254  140.7181  160.7324 C.ar    1  UNL1        0.0029
     26 C         142.3630  137.6975  158.2738 C.ar    1  UNL1        0.0754
     27 C         141.0801  137.9119  157.5267 C.ar    1  UNL1        0.0409
     28 C         141.0348  136.9316  156.3923 C.ar    1  UNL1        0.1214
     29 N         142.2897  136.1112  156.4383 N.ar    1  UNL1       -0.1711
     30 N         143.1106  136.5846  157.6011 N.ar    1  UNL1       -0.2757
     31 H         143.9863  136.2276  157.8748 H       1  UNL1        0.1889
@<TRIPOS>BOND
     1    11    12    1
     2    12    13   ar
     3    13    14   ar
     4    14    15    1
     5    14    16   ar
     6    16    17   ar
     7    17     7    1
     8     7     8   am
     9     8     9    2
    10     1     8    1
    11     1     2    1
    12     2     3    1
    13     3     4    1
    14     4     5    1
    15     5     6    1
    16     6    18    1
    17    18    19    2
    18    18    20    1
    19    20    21   ar
    20    21    22   ar
    21    22    23   ar
    22    23    26    1
    23    26    27   ar
    24    27    28   ar
    25    28    29   ar
    26    29    30   ar
    27    23    24   ar
    28    24    25   ar
    29    17    12   ar
    30     6     1    1
    31    25    20   ar
    32    30    26   ar
    33     7    10    1
    34    30    31    1
@<TRIPOS>MOLECULE
*****
 31 34 0 0 0
SMALL
GASTEIGER

@<TRIPOS>ATOM
      1 C         140.2538  139.7541  164.9991 C.3     1  UNL1        0.0840
      2 C         139.8829  140.2495  166.3654 C.3     1  UNL1        0.0095
      3 C         138.8235  139.5424  167.1576 C.3     1  UNL1        0.0005
      4 C         138.1349  138.3398  166.5834 C.3     1  UNL1        0.0005
      5 C         138.5058  137.8444  165.2170 C.3     1  UNL1        0.0082
      6 C         139.5652  138.5515  164.4249 C.3     1  UNL1        0.0705
      7 N         140.9411  141.6039  163.3092 N.am    1  UNL1       -0.2817
      8 C         141.3132  140.4613  164.2068 C.2     1  UNL1        0.2261
      9 O         142.7447  140.0257  164.3123 O.2     1  UNL1       -0.2748
     10 H         140.0016  141.8898  163.2399 H       1  UNL1        0.1549
     11 C         142.1716  144.5560  163.9579 C.3     1  UNL1        0.0553
     12 C         142.5661  143.6680  162.8151 C.ar    1  UNL1        0.0938
     13 N         143.5954  143.9810  161.7699 N.ar    1  UNL1       -0.1723
     14 N         143.6661  142.8175  160.8257 N.ar    1  UNL1       -0.2464
     15 C         144.5646  142.7058  159.6299 C.3     1  UNL1        0.1538
     16 C         142.6803  141.7855  161.2875 C.ar    1  UNL1        0.1110
     17 C         142.0005  142.3111  162.5170 C.ar    1  UNL1        0.0847
     18 C         139.9361  138.0561  163.0584 C.2     1  UNL1        0.1731
     19 O         140.8403  136.8684  162.9112 O.2     1  UNL1       -0.2913
     20 C         139.4028  138.7485  161.8393 C.ar    1  UNL1        0.0347
     21 C         137.9519  139.1217  161.7632 C.ar    1  UNL1        0.0029
     22 C         137.4186  139.8140  160.5441 C.ar    1  UNL1        0.0016
     23 C         138.3362  140.1332  159.4011 C.ar    1  UNL1        0.0171
     24 C         139.7870  139.7600  159.4773 C.ar    1  UNL1        0.0016
     25 C         140.3203  139.0677  160.6964 C.ar    1  UNL1        0.0029
     26 C         137.8028  140.8256  158.1820 C.ar    1  UNL1        0.0754
     27 C         138.3625  142.0700  157.5591 C.ar    1  UNL1        0.0409
     28 C         137.5218  142.4086  156.3639 C.ar    1  UNL1        0.1214
     29 N         136.4425  141.3734  156.2481 N.ar    1  UNL1       -0.1711
     30 N         136.6162  140.3951  157.3718 N.ar    1  UNL1       -0.2757
     31 H         136.0506  139.6084  157.5468 H       1  UNL1        0.1889
@<TRIPOS>BOND
     1    11    12    1
     2    12    13   ar
     3    13    14   ar
     4    14    15    1
     5    14    16   ar
     6    16    17   ar
     7    17     7    1
     8     7     8   am
     9     8     9    2
    10     1     8    1
    11     1     2    1
    12     2     3    1
    13     3     4    1
    14     4     5    1
    15     5     6    1
    16     6    18    1
    17    18    19    2
    18    18    20    1
    19    20    21   ar
    20    21    22   ar
    21    22    23   ar
    22    23    26    1
    23    26    27   ar
    24    27    28   ar
    25    28    29   ar
    26    29    30   ar
    27    23    24   ar
    28    24    25   ar
    29    17    12   ar
    30     6     1    1
    31    25    20   ar
    32    30    26   ar
    33     7    10    1
    34    30    31    1
