@<TRIPOS>MOLECULE
*****
 28 31 0 0 0
SMALL
GASTEIGER

@<TRIPOS>ATOM
      1 C         140.8386  142.7912  166.5524 C.3     1  UNL1        0.0036
      2 C         140.2136  141.6837  167.3480 C.3     1  UNL1        0.0382
      3 C         140.6084  142.8762  168.1678 C.3     1  UNL1        0.0035
      4 C         140.3655  142.8823  169.6479 C.3     1  UNL1        0.0001
      5 C         139.7278  141.6960  170.3083 C.3     1  UNL1        0.0000
      6 C         139.3331  140.5036  169.4885 C.3     1  UNL1        0.0002
      7 C         139.5760  140.4974  168.0083 C.3     1  UNL1        0.0049
      8 C         139.2955  139.4726  166.9494 C.3     1  UNL1        0.0198
      9 C         139.7599  140.0256  165.6347 C.3     1  UNL1        0.0978
     10 C         140.3273  141.3921  165.8810 C.3     1  UNL1        0.1801
     11 N         139.6722  139.3335  164.3067 N.3     1  UNL1       -0.2697
     12 C         138.3885  139.3588  163.5311 C.3     1  UNL1        0.0722
     13 C         138.3009  138.6668  162.2032 C.3     1  UNL1        0.0187
     14 C         139.4968  137.9494  161.6509 C.3     1  UNL1        0.0183
     15 C         140.7804  137.9241  162.4265 C.3     1  UNL1        0.0670
     16 N         141.9764  137.2067  161.8742 N.3     1  UNL1       -0.3211
     17 C         140.8681  138.6162  163.7544 C.3     1  UNL1        0.0878
     18 H         142.7551  137.2909  162.5277 H       1  UNL1        0.1189
     19 H         142.2375  137.6202  160.9791 H       1  UNL1        0.1189
     20 O         140.9066  142.3065  164.8426 O.3     1  UNL1       -0.4778
     21 C         140.3101  142.3530  163.4672 C.ar    1  UNL1        0.1385
     22 C         138.9156  142.8698  163.2715 C.ar    1  UNL1        0.0376
     23 C         138.3191  142.9162  161.8960 C.ar    1  UNL1        0.0134
     24 C         139.1170  142.4458  160.7161 C.ar    1  UNL1        0.0686
     25 C         140.5115  141.9290  160.9118 C.ar    1  UNL1        0.0134
     26 C         141.1080  141.8826  162.2873 C.ar    1  UNL1        0.0376
     27 C         138.5205  142.4923  159.3406 C.1     1  UNL1        0.1004
     28 N         137.9240  142.5387  157.9651 N.1     1  UNL1       -0.1908
@<TRIPOS>BOND
     1     2     1    1
     2     2     3    1
     3     3     4    1
     4     4     5    1
     5     5     6    1
     6     7     6    1
     7     7     8    1
     8     8     9    1
     9     9    11    1
    10    11    12    1
    11    12    13    1
    12    13    14    1
    13    14    15    1
    14    15    16    1
    15    15    17    1
    16     9    10    1
    17    10    20    1
    18    20    21    1
    19    21    22   ar
    20    22    23   ar
    21    23    24   ar
    22    24    27    1
    23    27    28    3
    24    24    25   ar
    25    25    26   ar
    26     7     2    1
    27    17    11    1
    28    26    21   ar
    29    10     2    1
    30    16    18    1
    31    16    19    1
@<TRIPOS>MOLECULE
*****
 28 31 0 0 0
SMALL
GASTEIGER

@<TRIPOS>ATOM
      1 C         142.7656  141.7926  167.2510 C.3     1  UNL1        0.0036
      2 C         141.7597  141.1224  168.1393 C.3     1  UNL1        0.0382
      3 C         142.8870  141.7779  168.8804 C.3     1  UNL1        0.0035
      4 C         142.9318  141.7231  170.3787 C.3     1  UNL1        0.0001
      5 C         141.8493  141.0127  171.1359 C.3     1  UNL1        0.0000
      6 C         140.7219  140.3571  170.3948 C.3     1  UNL1        0.0002
      7 C         140.6771  140.4119  168.8965 C.3     1  UNL1        0.0049
      8 C         139.6990  139.8625  167.9008 C.3     1  UNL1        0.0198
      9 C         140.1770  140.2334  166.5282 C.3     1  UNL1        0.0978
     10 C         141.4506  141.0120  166.6756 C.3     1  UNL1        0.1801
     11 N         139.5002  139.8865  165.2353 N.3     1  UNL1       -0.2697
     12 C         139.9030  138.6513  164.4857 C.3     1  UNL1        0.0722
     13 C         139.2263  138.3044  163.1928 C.3     1  UNL1        0.0187
     14 C         138.1468  139.1928  162.6494 C.3     1  UNL1        0.0183
     15 C         137.7440  140.4281  163.3989 C.3     1  UNL1        0.0670
     16 N         136.6644  141.3166  162.8555 N.3     1  UNL1       -0.3211
     17 C         138.4207  140.7749  164.6919 C.3     1  UNL1        0.0878
     18 H         136.5211  142.1035  163.4884 H       1  UNL1        0.1189
     19 H         135.7975  140.7857  162.7714 H       1  UNL1        0.1189
     20 O         142.2710  141.5805  165.5559 O.3     1  UNL1       -0.4778
     21 C         141.6822  142.6175  164.6462 C.ar    1  UNL1        0.1385
     22 C         142.0727  142.6539  163.1983 C.ar    1  UNL1        0.0376
     23 C         141.4838  143.6910  162.2886 C.ar    1  UNL1        0.0134
     24 C         140.5045  144.6917  162.8266 C.ar    1  UNL1        0.0686
     25 C         140.1140  144.6553  164.2744 C.ar    1  UNL1        0.0134
     26 C         140.7029  143.6183  165.1842 C.ar    1  UNL1        0.0376
     27 C         139.9156  145.7288  161.9168 C.1     1  UNL1        0.1004
     28 N         139.3267  146.7659  161.0071 N.1     1  UNL1       -0.1908
@<TRIPOS>BOND
     1     2     1    1
     2     2     3    1
     3     3     4    1
     4     4     5    1
     5     5     6    1
     6     7     6    1
     7     7     8    1
     8     8     9    1
     9     9    11    1
    10    11    12    1
    11    12    13    1
    12    13    14    1
    13    14    15    1
    14    15    16    1
    15    15    17    1
    16     9    10    1
    17    10    20    1
    18    20    21    1
    19    21    22   ar
    20    22    23   ar
    21    23    24   ar
    22    24    27    1
    23    27    28    3
    24    24    25   ar
    25    25    26   ar
    26     7     2    1
    27    17    11    1
    28    26    21   ar
    29    10     2    1
    30    16    18    1
    31    16    19    1
@<TRIPOS>MOLECULE
*****
 28 31 0 0 0
SMALL
GASTEIGER

@<TRIPOS>ATOM
      1 C         142.8714  139.5694  167.5436 C.3     1  UNL1        0.0036
      2 C         141.7124  140.4544  167.8948 C.3     1  UNL1        0.0382
      3 C         142.0994  139.4959  168.9817 C.3     1  UNL1        0.0035
      4 C         141.3434  139.4860  170.2772 C.3     1  UNL1        0.0001
      5 C         140.2004  140.4347  170.4858 C.3     1  UNL1        0.0000
      6 C         139.8134  141.3933  169.3989 C.3     1  UNL1        0.0002
      7 C         140.5694  141.4031  168.1034 C.3     1  UNL1        0.0049
      8 C         140.4189  142.2280  166.8597 C.3     1  UNL1        0.0198
      9 C         141.4688  141.7892  165.8824 C.3     1  UNL1        0.0978
     10 C         142.2682  140.6931  166.5222 C.3     1  UNL1        0.1801
     11 N         141.6818  142.3484  164.5070 N.3     1  UNL1       -0.2697
     12 C         140.9145  141.7923  163.3442 C.3     1  UNL1        0.0722
     13 C         141.1276  142.3515  161.9687 C.3     1  UNL1        0.0187
     14 C         142.1079  143.4666  161.7560 C.3     1  UNL1        0.0183
     15 C         142.8752  144.0227  162.9187 C.3     1  UNL1        0.0670
     16 N         143.8556  145.1379  162.7060 N.3     1  UNL1       -0.3211
     17 C         142.6621  143.4635  164.2942 C.3     1  UNL1        0.0878
     18 H         144.2829  145.3895  163.5974 H       1  UNL1        0.1189
     19 H         143.3704  145.9482  162.3208 H       1  UNL1        0.1189
     20 O         143.4211  139.9636  165.8988 O.3     1  UNL1       -0.4778
     21 C         143.3396  139.5132  164.4704 C.ar    1  UNL1        0.1385
     22 C         142.3476  138.4614  164.0710 C.ar    1  UNL1        0.0376
     23 C         142.2661  138.0110  162.6425 C.ar    1  UNL1        0.0134
     24 C         143.1766  138.6124  161.6134 C.ar    1  UNL1        0.0686
     25 C         144.1687  139.6643  162.0127 C.ar    1  UNL1        0.0134
     26 C         144.2502  140.1146  163.4412 C.ar    1  UNL1        0.0376
     27 C         143.0952  138.1621  160.1849 C.1     1  UNL1        0.1004
     28 N         143.0137  137.7117  158.7565 N.1     1  UNL1       -0.1908
@<TRIPOS>BOND
     1     2     1    1
     2     2     3    1
     3     3     4    1
     4     4     5    1
     5     5     6    1
     6     7     6    1
     7     7     8    1
     8     8     9    1
     9     9    11    1
    10    11    12    1
    11    12    13    1
    12    13    14    1
    13    14    15    1
    14    15    16    1
    15    15    17    1
    16     9    10    1
    17    10    20    1
    18    20    21    1
    19    21    22   ar
    20    22    23   ar
    21    23    24   ar
    22    24    27    1
    23    27    28    3
    24    24    25   ar
    25    25    26   ar
    26     7     2    1
    27    17    11    1
    28    26    21   ar
    29    10     2    1
    30    16    18    1
    31    16    19    1
@<TRIPOS>MOLECULE
*****
 28 31 0 0 0
SMALL
GASTEIGER

@<TRIPOS>ATOM
      1 C         139.3077  140.2417  166.9584 C.3     1  UNL1        0.0036
      2 C         140.5111  140.0799  167.8390 C.3     1  UNL1        0.0382
      3 C         139.2168  140.1903  168.5889 C.3     1  UNL1        0.0035
      4 C         139.2114  140.1347  170.0879 C.3     1  UNL1        0.0001
      5 C         140.5003  139.9687  170.8369 C.3     1  UNL1        0.0000
      6 C         141.7947  139.8583  170.0870 C.3     1  UNL1        0.0002
      7 C         141.8001  139.9139  168.5881 C.3     1  UNL1        0.0049
      8 C         142.9121  139.8325  167.5847 C.3     1  UNL1        0.0198
      9 C         142.3105  139.9483  166.2155 C.3     1  UNL1        0.0978
     10 C         140.8266  140.1012  166.3727 C.3     1  UNL1        0.1801
     11 N         143.0609  139.9166  164.9171 N.3     1  UNL1       -0.2697
     12 C         142.6721  138.9371  163.8498 C.3     1  UNL1        0.0722
     13 C         143.4226  138.9054  162.5514 C.3     1  UNL1        0.0187
     14 C         144.5618  139.8534  162.3203 C.3     1  UNL1        0.0183
     15 C         144.9506  140.8330  163.3877 C.3     1  UNL1        0.0670
     16 N         146.0899  141.7810  163.1566 N.3     1  UNL1       -0.3211
     17 C         144.2002  140.8646  164.6860 C.3     1  UNL1        0.0878
     18 H         146.2143  142.3701  163.9799 H       1  UNL1        0.1189
     19 H         145.8859  142.3668  162.3470 H       1  UNL1        0.1189
     20 O         139.8326  140.2493  165.2591 O.3     1  UNL1       -0.4778
     21 C         139.7584  141.5323  164.4857 C.ar    1  UNL1        0.1385
     22 C         140.7322  142.6371  164.7705 C.ar    1  UNL1        0.0376
     23 C         140.6579  143.9202  163.9970 C.ar    1  UNL1        0.0134
     24 C         139.6099  144.0984  162.9387 C.ar    1  UNL1        0.0686
     25 C         138.6361  142.9936  162.6539 C.ar    1  UNL1        0.0134
     26 C         138.7104  141.7106  163.4274 C.ar    1  UNL1        0.0376
     27 C         139.5357  145.3815  162.1652 C.1     1  UNL1        0.1004
     28 N         139.4614  146.6645  161.3918 N.1     1  UNL1       -0.1908
@<TRIPOS>BOND
     1     2     1    1
     2     2     3    1
     3     3     4    1
     4     4     5    1
     5     5     6    1
     6     7     6    1
     7     7     8    1
     8     8     9    1
     9     9    11    1
    10    11    12    1
    11    12    13    1
    12    13    14    1
    13    14    15    1
    14    15    16    1
    15    15    17    1
    16     9    10    1
    17    10    20    1
    18    20    21    1
    19    21    22   ar
    20    22    23   ar
    21    23    24   ar
    22    24    27    1
    23    27    28    3
    24    24    25   ar
    25    25    26   ar
    26     7     2    1
    27    17    11    1
    28    26    21   ar
    29    10     2    1
    30    16    18    1
    31    16    19    1
@<TRIPOS>MOLECULE
*****
 28 31 0 0 0
SMALL
GASTEIGER

@<TRIPOS>ATOM
      1 C         142.7751  139.6960  167.4275 C.3     1  UNL1        0.0036
      2 C         141.4675  139.8777  168.1398 C.3     1  UNL1        0.0382
      3 C         142.6700  140.0351  169.0224 C.3     1  UNL1        0.0035
      4 C         142.4954  140.3467  170.4792 C.3     1  UNL1        0.0001
      5 C         141.1182  140.5009  171.0534 C.3     1  UNL1        0.0000
      6 C         139.9157  140.3434  170.1708 C.3     1  UNL1        0.0002
      7 C         140.0903  140.0318  168.7139 C.3     1  UNL1        0.0049
      8 C         139.1004  139.8219  167.6067 C.3     1  UNL1        0.0198
      9 C         139.8656  139.5380  166.3483 C.3     1  UNL1        0.0978
     10 C         141.3286  139.5725  166.6777 C.3     1  UNL1        0.1801
     11 N         139.2722  139.2672  164.9975 N.3     1  UNL1       -0.2697
     12 C         139.4768  137.9336  164.3421 C.3     1  UNL1        0.0722
     13 C         138.8833  137.6628  162.9914 C.3     1  UNL1        0.0187
     14 C         138.0852  138.7256  162.2961 C.3     1  UNL1        0.0183
     15 C         137.8806  140.0592  162.9515 C.3     1  UNL1        0.0670
     16 N         137.0825  141.1221  162.2562 N.3     1  UNL1       -0.3211
     17 C         138.4741  140.3300  164.3022 C.3     1  UNL1        0.0878
     18 H         137.0456  141.9569  162.8412 H       1  UNL1        0.1189
     19 H         136.1356  140.7817  162.0893 H       1  UNL1        0.1189
     20 O         142.4550  139.3422  165.7143 O.3     1  UNL1       -0.4778
     21 C         142.5786  140.1957  164.4871 C.ar    1  UNL1        0.1385
     22 C         142.4232  141.6840  164.5898 C.ar    1  UNL1        0.0376
     23 C         142.5469  142.5375  163.3625 C.ar    1  UNL1        0.0134
     24 C         142.8260  141.9027  162.0324 C.ar    1  UNL1        0.0686
     25 C         142.9814  140.4143  161.9296 C.ar    1  UNL1        0.0134
     26 C         142.8577  139.5608  163.1569 C.ar    1  UNL1        0.0376
     27 C         142.9496  142.7561  160.8051 C.1     1  UNL1        0.1004
     28 N         143.0733  143.6096  159.5778 N.1     1  UNL1       -0.1908
@<TRIPOS>BOND
     1     2     1    1
     2     2     3    1
     3     3     4    1
     4     4     5    1
     5     5     6    1
     6     7     6    1
     7     7     8    1
     8     8     9    1
     9     9    11    1
    10    11    12    1
    11    12    13    1
    12    13    14    1
    13    14    15    1
    14    15    16    1
    15    15    17    1
    16     9    10    1
    17    10    20    1
    18    20    21    1
    19    21    22   ar
    20    22    23   ar
    21    23    24   ar
    22    24    27    1
    23    27    28    3
    24    24    25   ar
    25    25    26   ar
    26     7     2    1
    27    17    11    1
    28    26    21   ar
    29    10     2    1
    30    16    18    1
    31    16    19    1
@<TRIPOS>MOLECULE
*****
 28 31 0 0 0
SMALL
GASTEIGER

@<TRIPOS>ATOM
      1 C         142.6115  141.8571  167.1843 C.3     1  UNL1        0.0036
      2 C         141.6102  141.1998  168.0873 C.3     1  UNL1        0.0382
      3 C         142.6970  141.9350  168.8141 C.3     1  UNL1        0.0035
      4 C         142.7104  141.9629  170.3137 C.3     1  UNL1        0.0001
      5 C         141.6368  141.2557  171.0866 C.3     1  UNL1        0.0000
      6 C         140.5500  140.5205  170.3599 C.3     1  UNL1        0.0002
      7 C         140.5366  140.4926  168.8602 C.3     1  UNL1        0.0049
      8 C         139.6008  139.8550  167.8765 C.3     1  UNL1        0.0198
      9 C         140.0959  140.1682  166.4956 C.3     1  UNL1        0.0978
     10 C         141.3378  140.9993  166.6260 C.3     1  UNL1        0.1801
     11 N         139.4607  139.7276  165.2102 N.3     1  UNL1       -0.2697
     12 C         139.7345  138.3553  164.6701 C.3     1  UNL1        0.0722
     13 C         139.0993  137.9147  163.3846 C.3     1  UNL1        0.0187
     14 C         138.1903  138.8464  162.6393 C.3     1  UNL1        0.0183
     15 C         137.9165  140.2187  163.1794 C.3     1  UNL1        0.0670
     16 N         137.0075  141.1505  162.4340 N.3     1  UNL1       -0.3211
     17 C         138.5517  140.6593  164.4648 C.3     1  UNL1        0.0878
     18 H         136.9352  142.0327  162.9408 H       1  UNL1        0.1189
     19 H         136.0823  140.7291  162.3514 H       1  UNL1        0.1189
     20 O         142.1625  141.5358  165.4937 O.3     1  UNL1       -0.4778
     21 C         142.3425  140.7229  164.2460 C.ar    1  UNL1        0.1385
     22 C         143.1101  139.4351  164.2941 C.ar    1  UNL1        0.0376
     23 C         143.2901  138.6222  163.0463 C.ar    1  UNL1        0.0134
     24 C         142.7025  139.0971  161.7505 C.ar    1  UNL1        0.0686
     25 C         141.9349  140.3849  161.7024 C.ar    1  UNL1        0.0134
     26 C         141.7549  141.1978  162.9501 C.ar    1  UNL1        0.0376
     27 C         142.8825  138.2843  160.5028 C.1     1  UNL1        0.1004
     28 N         143.0625  137.4714  159.2551 N.1     1  UNL1       -0.1908
@<TRIPOS>BOND
     1     2     1    1
     2     2     3    1
     3     3     4    1
     4     4     5    1
     5     5     6    1
     6     7     6    1
     7     7     8    1
     8     8     9    1
     9     9    11    1
    10    11    12    1
    11    12    13    1
    12    13    14    1
    13    14    15    1
    14    15    16    1
    15    15    17    1
    16     9    10    1
    17    10    20    1
    18    20    21    1
    19    21    22   ar
    20    22    23   ar
    21    23    24   ar
    22    24    27    1
    23    27    28    3
    24    24    25   ar
    25    25    26   ar
    26     7     2    1
    27    17    11    1
    28    26    21   ar
    29    10     2    1
    30    16    18    1
    31    16    19    1
@<TRIPOS>MOLECULE
*****
 28 31 0 0 0
SMALL
GASTEIGER

@<TRIPOS>ATOM
      1 C         139.6121  140.6301  166.8515 C.3     1  UNL1        0.0036
      2 C         140.8223  140.0866  167.5516 C.3     1  UNL1        0.0382
      3 C         139.7036  140.4690  168.4748 C.3     1  UNL1        0.0035
      4 C         139.8602  140.2925  169.9561 C.3     1  UNL1        0.0001
      5 C         141.1353  139.7335  170.5142 C.3     1  UNL1        0.0000
      6 C         142.2540  139.3511  169.5910 C.3     1  UNL1        0.0002
      7 C         142.0974  139.5276  168.1097 C.3     1  UNL1        0.0049
      8 C         143.0198  139.2418  166.9618 C.3     1  UNL1        0.0198
      9 C         142.3147  139.6242  165.6943 C.3     1  UNL1        0.0978
     10 C         140.9565  140.1463  166.0588 C.3     1  UNL1        0.1801
     11 N         142.8701  139.5053  164.3060 N.3     1  UNL1       -0.2697
     12 C         143.8636  140.5122  163.8070 C.3     1  UNL1        0.0722
     13 C         144.4191  140.3933  162.4187 C.3     1  UNL1        0.0187
     14 C         143.9811  139.2675  161.5295 C.3     1  UNL1        0.0183
     15 C         142.9876  138.2606  162.0285 C.3     1  UNL1        0.0670
     16 N         142.5496  137.1348  161.1393 N.3     1  UNL1       -0.3211
     17 C         142.4321  138.3795  163.4168 C.3     1  UNL1        0.0878
     18 H         141.8769  136.5509  161.6364 H       1  UNL1        0.1189
     19 H         143.3597  136.5729  160.8780 H       1  UNL1        0.1189
     20 O         139.9154  140.6412  165.0991 O.3     1  UNL1       -0.4778
     21 C         140.3060  141.5504  163.9719 C.ar    1  UNL1        0.1385
     22 C         140.0941  141.1178  162.5514 C.ar    1  UNL1        0.0376
     23 C         140.4848  142.0271  161.4242 C.ar    1  UNL1        0.0134
     24 C         141.0874  143.3690  161.7175 C.ar    1  UNL1        0.0686
     25 C         141.2994  143.8017  163.1381 C.ar    1  UNL1        0.0134
     26 C         140.9087  142.8924  164.2652 C.ar    1  UNL1        0.0376
     27 C         141.4781  144.2784  160.5904 C.1     1  UNL1        0.1004
     28 N         141.8688  145.1877  159.4632 N.1     1  UNL1       -0.1908
@<TRIPOS>BOND
     1     2     1    1
     2     2     3    1
     3     3     4    1
     4     4     5    1
     5     5     6    1
     6     7     6    1
     7     7     8    1
     8     8     9    1
     9     9    11    1
    10    11    12    1
    11    12    13    1
    12    13    14    1
    13    14    15    1
    14    15    16    1
    15    15    17    1
    16     9    10    1
    17    10    20    1
    18    20    21    1
    19    21    22   ar
    20    22    23   ar
    21    23    24   ar
    22    24    27    1
    23    27    28    3
    24    24    25   ar
    25    25    26   ar
    26     7     2    1
    27    17    11    1
    28    26    21   ar
    29    10     2    1
    30    16    18    1
    31    16    19    1
@<TRIPOS>MOLECULE
*****
 28 31 0 0 0
SMALL
GASTEIGER

@<TRIPOS>ATOM
      1 C         139.1984  139.5477  167.1097 C.3     1  UNL1        0.0036
      2 C         139.9939  140.7259  167.5883 C.3     1  UNL1        0.0382
      3 C         139.1076  140.1217  168.6368 C.3     1  UNL1        0.0035
      4 C         139.0769  140.7035  170.0190 C.3     1  UNL1        0.0001
      5 C         139.9324  141.8896  170.3527 C.3     1  UNL1        0.0000
      6 C         140.8187  142.4938  169.3042 C.3     1  UNL1        0.0002
      7 C         140.8494  141.9120  167.9220 C.3     1  UNL1        0.0049
      8 C         141.6173  142.2907  166.6904 C.3     1  UNL1        0.0198
      9 C         141.2364  141.3388  165.5955 C.3     1  UNL1        0.0978
     10 C         140.2331  140.3717  166.1505 C.3     1  UNL1        0.1801
     11 N         141.7659  141.3518  164.1922 N.3     1  UNL1       -0.2697
     12 C         141.1867  142.2959  163.1807 C.3     1  UNL1        0.0722
     13 C         141.7161  142.3088  161.7773 C.3     1  UNL1        0.0187
     14 C         142.8248  141.3776  161.3854 C.3     1  UNL1        0.0183
     15 C         143.4040  140.4335  162.3968 C.3     1  UNL1        0.0670
     16 N         144.5128  139.5023  162.0049 N.3     1  UNL1       -0.3211
     17 C         142.8746  140.4206  163.8002 C.3     1  UNL1        0.0878
     18 H         144.7825  138.9369  162.8100 H       1  UNL1        0.1189
     19 H         145.3156  140.0446  161.6860 H       1  UNL1        0.1189
     20 O         139.5830  139.2477  165.3995 O.3     1  UNL1       -0.4778
     21 C         139.1538  139.4461  163.9760 C.ar    1  UNL1        0.1385
     22 C         138.0892  140.4501  163.6466 C.ar    1  UNL1        0.0376
     23 C         137.6601  140.6484  162.2230 C.ar    1  UNL1        0.0134
     24 C         138.2955  139.8428  161.1289 C.ar    1  UNL1        0.0686
     25 C         139.3601  138.8387  161.4583 C.ar    1  UNL1        0.0134
     26 C         139.7893  138.6404  162.8818 C.ar    1  UNL1        0.0376
     27 C         137.8663  140.0411  159.7053 C.1     1  UNL1        0.1004
     28 N         137.4372  140.2394  158.2818 N.1     1  UNL1       -0.1908
@<TRIPOS>BOND
     1     2     1    1
     2     2     3    1
     3     3     4    1
     4     4     5    1
     5     5     6    1
     6     7     6    1
     7     7     8    1
     8     8     9    1
     9     9    11    1
    10    11    12    1
    11    12    13    1
    12    13    14    1
    13    14    15    1
    14    15    16    1
    15    15    17    1
    16     9    10    1
    17    10    20    1
    18    20    21    1
    19    21    22   ar
    20    22    23   ar
    21    23    24   ar
    22    24    27    1
    23    27    28    3
    24    24    25   ar
    25    25    26   ar
    26     7     2    1
    27    17    11    1
    28    26    21   ar
    29    10     2    1
    30    16    18    1
    31    16    19    1
@<TRIPOS>MOLECULE
*****
 28 31 0 0 0
SMALL
GASTEIGER

@<TRIPOS>ATOM
      1 C         139.8448  140.5965  167.1001 C.3     1  UNL1        0.0036
      2 C         140.8993  141.0913  168.0452 C.3     1  UNL1        0.0382
      3 C         139.6845  140.5325  168.7249 C.3     1  UNL1        0.0035
      4 C         139.6084  140.5068  170.2227 C.3     1  UNL1        0.0001
      5 C         140.7470  141.0399  171.0408 C.3     1  UNL1        0.0000
      6 C         141.9618  141.5986  170.3611 C.3     1  UNL1        0.0002
      7 C         142.0380  141.6244  168.8633 C.3     1  UNL1        0.0049
      8 C         143.0987  142.1100  167.9204 C.3     1  UNL1        0.0198
      9 C         142.6156  141.8771  166.5196 C.3     1  UNL1        0.0978
     10 C         141.2563  141.2475  166.5967 C.3     1  UNL1        0.1801
     11 N         143.3609  142.2146  165.2623 N.3     1  UNL1       -0.2697
     12 C         144.2321  141.1841  164.6074 C.3     1  UNL1        0.0722
     13 C         144.9775  141.5216  163.3502 C.3     1  UNL1        0.0187
     14 C         144.8516  142.8895  162.7479 C.3     1  UNL1        0.0183
     15 C         143.9804  143.9201  163.4029 C.3     1  UNL1        0.0670
     16 N         143.8546  145.2881  162.8006 N.3     1  UNL1       -0.3211
     17 C         143.2351  143.5826  164.6601 C.3     1  UNL1        0.0878
     18 H         143.2277  145.8547  163.3719 H       1  UNL1        0.1189
     19 H         143.4770  145.2105  161.8563 H       1  UNL1        0.1189
     20 O         140.4037  140.8449  165.4301 O.3     1  UNL1       -0.4778
     21 C         140.3144  141.7327  164.2245 C.ar    1  UNL1        0.1385
     22 C         139.6471  143.0722  164.3271 C.ar    1  UNL1        0.0376
     23 C         139.5578  143.9600  163.1214 C.ar    1  UNL1        0.0134
     24 C         140.1359  143.5085  161.8130 C.ar    1  UNL1        0.0686
     25 C         140.8032  142.1690  161.7103 C.ar    1  UNL1        0.0134
     26 C         140.8925  141.2812  162.9160 C.ar    1  UNL1        0.0376
     27 C         140.0466  144.3963  160.6073 C.1     1  UNL1        0.1004
     28 N         139.9573  145.2841  159.4016 N.1     1  UNL1       -0.1908
@<TRIPOS>BOND
     1     2     1    1
     2     2     3    1
     3     3     4    1
     4     4     5    1
     5     5     6    1
     6     7     6    1
     7     7     8    1
     8     8     9    1
     9     9    11    1
    10    11    12    1
    11    12    13    1
    12    13    14    1
    13    14    15    1
    14    15    16    1
    15    15    17    1
    16     9    10    1
    17    10    20    1
    18    20    21    1
    19    21    22   ar
    20    22    23   ar
    21    23    24   ar
    22    24    27    1
    23    27    28    3
    24    24    25   ar
    25    25    26   ar
    26     7     2    1
    27    17    11    1
    28    26    21   ar
    29    10     2    1
    30    16    18    1
    31    16    19    1
