@<TRIPOS>MOLECULE
*****
 34 37 0 0 0
SMALL
GASTEIGER

@<TRIPOS>ATOM
      1 C         140.5701  139.0832  163.0247 C.ar    1  UNL1        0.0523
      2 C         141.4126  139.7635  161.9868 C.ar    1  UNL1        0.0167
      3 C         141.0997  139.5834  160.5308 C.ar    1  UNL1        0.0505
      4 C         139.9443  138.7230  160.1129 C.ar    1  UNL1        0.0170
      5 C         139.1018  138.0426  161.1509 C.ar    1  UNL1        0.0307
      6 C         139.4147  138.2228  162.6068 C.ar    1  UNL1        0.1401
      7 F         138.5722  137.5425  163.6448 F       1  UNL1       -0.2044
      8 C         141.5691  137.9537  164.2269 C.3     1  UNL1        0.0602
      9 C         140.8830  139.2633  164.4807 C.3     1  UNL1        0.2179
     10 C         141.4342  138.9885  165.8485 C.3     1  UNL1        0.1808
     11 N         141.1906  139.9608  166.9644 N.ar    1  UNL1       -0.2384
     12 N         141.6051  139.9584  168.4060 N.ar    1  UNL1       -0.1584
     13 C         141.0666  141.2040  169.0451 C.ar    1  UNL1        0.1704
     14 C         140.3192  141.9762  167.9985 C.ar    1  UNL1        0.0576
     15 C         140.3959  141.2078  166.7126 C.ar    1  UNL1        0.1615
     16 C         139.8448  141.4825  165.3448 C.2     1  UNL1        0.3305
     17 N         139.0501  142.7296  165.0930 N.pl3   1  UNL1       -0.2452
     18 N         140.0883  140.5103  164.2289 N.2     1  UNL1       -0.0666
     19 H         138.8902  143.3677  165.8254 H       1  UNL1        0.2885
     20 H         138.6883  142.9099  164.1953 H       1  UNL1        0.2885
     21 C         141.2441  141.6068  170.4791 C.1     1  UNL1        0.1216
     22 N         141.4217  142.0095  171.9130 N.1     1  UNL1       -0.1892
     23 N         141.9423  140.2637  159.4929 N.am    1  UNL1       -0.2791
     24 C         143.3203  139.7529  159.1928 C.2     1  UNL1        0.2672
     25 O         143.8559  138.5618  159.9306 O.2     1  UNL1       -0.2682
     26 H         141.5908  141.0455  159.0087 H       1  UNL1        0.1552
     27 C         144.1629  140.4333  158.1548 C.ar    1  UNL1        0.1348
     28 C         144.5863  141.8590  158.3493 C.ar    1  UNL1        0.0245
     29 C         145.4288  142.5393  157.3114 C.ar    1  UNL1        0.0135
     30 C         145.8479  141.7939  156.0790 C.ar    1  UNL1        0.0876
     31 C         145.4244  140.3681  155.8846 C.ar    1  UNL1        0.1092
     32 N         144.5819  139.6877  156.9225 N.ar    1  UNL1       -0.2385
     33 C         146.6904  142.4743  155.0411 C.1     1  UNL1        0.1020
     34 N         147.5329  143.1546  154.0032 N.1     1  UNL1       -0.1908
@<TRIPOS>BOND
     1     9     8    1
     2     9     1    1
     3     1     2   ar
     4     2     3   ar
     5     3    23    1
     6    23    24   am
     7    24    25    2
     8    24    27    1
     9    27    28   ar
    10    28    29   ar
    11    29    30   ar
    12    30    33    1
    13    33    34    3
    14    30    31   ar
    15    31    32   ar
    16     3     4   ar
    17     4     5   ar
    18     5     6   ar
    19     6     7    1
    20     9    10    1
    21    10    11    1
    22    11    12   ar
    23    12    13   ar
    24    13    21    1
    25    21    22    3
    26    13    14   ar
    27    14    15   ar
    28    15    16    1
    29    16    17    1
    30    16    18    2
    31    18     9    1
    32     6     1   ar
    33    15    11   ar
    34    32    27   ar
    35    23    26    1
    36    17    19    1
    37    17    20    1
@<TRIPOS>MOLECULE
*****
 34 37 0 0 0
SMALL
GASTEIGER

@<TRIPOS>ATOM
      1 C         140.0235  144.6752  157.4025 C.ar    1  UNL1        0.0523
      2 C         140.0983  145.9882  156.6812 C.ar    1  UNL1        0.0167
      3 C         139.1372  146.2891  155.5695 C.ar    1  UNL1        0.0505
      4 C         138.1013  145.2768  155.1792 C.ar    1  UNL1        0.0170
      5 C         138.0265  143.9637  155.9006 C.ar    1  UNL1        0.0307
      6 C         138.9877  143.6630  157.0123 C.ar    1  UNL1        0.1401
      7 F         138.9129  142.3500  157.7336 F       1  UNL1       -0.2044
      8 C         141.6557  143.6482  157.3860 C.3     1  UNL1        0.0602
      9 C         140.9847  144.3743  158.5142 C.3     1  UNL1        0.2179
     10 C         142.1789  143.8213  159.2340 C.3     1  UNL1        0.1808
     11 N         142.3683  144.0988  160.6959 N.ar    1  UNL1       -0.2384
     12 N         143.4385  143.6909  161.6645 N.ar    1  UNL1       -0.1584
     13 C         143.0952  144.2693  163.0052 C.ar    1  UNL1        0.1704
     14 C         141.8128  145.0348  162.8652 C.ar    1  UNL1        0.0576
     15 C         141.3635  144.9294  161.4379 C.ar    1  UNL1        0.1615
     16 C         140.1694  145.4824  160.7181 C.2     1  UNL1        0.3305
     17 N         139.1646  146.3130  161.4601 N.pl3   1  UNL1       -0.2452
     18 N         139.9800  145.2049  159.2562 N.2     1  UNL1       -0.0666
     19 H         139.2889  146.4952  162.4196 H       1  UNL1        0.2885
     20 H         138.3809  146.6760  160.9876 H       1  UNL1        0.2885
     21 C         143.8939  144.1103  164.2648 C.1     1  UNL1        0.1216
     22 N         144.6927  143.9512  165.5244 N.1     1  UNL1       -0.1892
     23 N         139.2120  147.6021  154.8482 N.am    1  UNL1       -0.2791
     24 C         138.8975  148.8761  155.5748 C.2     1  UNL1        0.2672
     25 O         138.5081  148.8370  157.0229 O.2     1  UNL1       -0.2682
     26 H         139.4675  147.6277  153.8978 H       1  UNL1        0.1552
     27 C         138.9723  150.1891  154.8534 C.ar    1  UNL1        0.1348
     28 C         139.5909  150.2609  153.4889 C.ar    1  UNL1        0.0245
     29 C         139.6657  151.5739  152.7675 C.ar    1  UNL1        0.0135
     30 C         139.1219  152.8151  153.4107 C.ar    1  UNL1        0.0876
     31 C         138.5033  152.7432  154.7754 C.ar    1  UNL1        0.1092
     32 N         138.4285  151.4303  155.4968 N.ar    1  UNL1       -0.2385
     33 C         139.1967  154.1282  152.6893 C.1     1  UNL1        0.1020
     34 N         139.2716  155.4411  151.9679 N.1     1  UNL1       -0.1908
@<TRIPOS>BOND
     1     9     8    1
     2     9     1    1
     3     1     2   ar
     4     2     3   ar
     5     3    23    1
     6    23    24   am
     7    24    25    2
     8    24    27    1
     9    27    28   ar
    10    28    29   ar
    11    29    30   ar
    12    30    33    1
    13    33    34    3
    14    30    31   ar
    15    31    32   ar
    16     3     4   ar
    17     4     5   ar
    18     5     6   ar
    19     6     7    1
    20     9    10    1
    21    10    11    1
    22    11    12   ar
    23    12    13   ar
    24    13    21    1
    25    21    22    3
    26    13    14   ar
    27    14    15   ar
    28    15    16    1
    29    16    17    1
    30    16    18    2
    31    18     9    1
    32     6     1   ar
    33    15    11   ar
    34    32    27   ar
    35    23    26    1
    36    17    19    1
    37    17    20    1
@<TRIPOS>MOLECULE
*****
 34 37 0 0 0
SMALL
GASTEIGER

@<TRIPOS>ATOM
      1 C         143.5253  140.9647  162.6222 C.ar    1  UNL1        0.0523
      2 C         143.4653  139.8723  161.5961 C.ar    1  UNL1        0.0167
      3 C         143.7829  140.1728  160.1612 C.ar    1  UNL1        0.0505
      4 C         144.1604  141.5658  159.7525 C.ar    1  UNL1        0.0170
      5 C         144.2204  142.6583  160.7786 C.ar    1  UNL1        0.0307
      6 C         143.9028  142.3577  162.2135 C.ar    1  UNL1        0.1401
      7 F         143.9627  143.4502  163.2396 F       1  UNL1       -0.2044
      8 C         144.6531  140.2645  164.0210 C.3     1  UNL1        0.0602
      9 C         143.2077  140.6643  164.0571 C.3     1  UNL1        0.2179
     10 C         143.3922  140.2249  165.4795 C.3     1  UNL1        0.1808
     11 N         142.2416  140.2897  166.4396 N.ar    1  UNL1       -0.2384
     12 N         142.1237  139.9283  167.8906 N.ar    1  UNL1       -0.1584
     13 C         140.7157  140.2090  168.3252 C.ar    1  UNL1        0.1704
     14 C         139.9635  140.7439  167.1428 C.ar    1  UNL1        0.0576
     15 C         140.9066  140.7938  165.9774 C.ar    1  UNL1        0.1615
     16 C         140.7222  141.2331  164.5551 C.2     1  UNL1        0.3305
     17 N         139.3871  141.7372  164.0929 N.pl3   1  UNL1       -0.2452
     18 N         141.8728  141.1683  163.5950 N.2     1  UNL1       -0.0666
     19 H         138.6319  141.7797  164.7231 H       1  UNL1        0.2885
     20 H         139.2661  142.0255  163.1594 H       1  UNL1        0.2885
     21 C         140.1579  139.9927  169.7007 C.1     1  UNL1        0.1216
     22 N         139.6000  139.7765  171.0763 N.1     1  UNL1       -0.1892
     23 N         143.7230  139.0803  159.1351 N.am    1  UNL1       -0.2791
     24 C         142.5246  138.9553  158.2417 C.2     1  UNL1        0.2672
     25 O         141.3861  139.9229  158.3743 O.2     1  UNL1       -0.2682
     26 H         144.4702  138.4452  159.0481 H       1  UNL1        0.1552
     27 C         142.4647  137.8628  157.2156 C.ar    1  UNL1        0.1348
     28 C         141.1445  137.2570  156.8414 C.ar    1  UNL1        0.0245
     29 C         141.0846  136.1644  155.8153 C.ar    1  UNL1        0.0135
     30 C         142.3449  135.6778  155.1635 C.ar    1  UNL1        0.0876
     31 C         143.6650  136.2837  155.5378 C.ar    1  UNL1        0.1092
     32 N         143.7250  137.3762  156.5638 N.ar    1  UNL1       -0.2385
     33 C         142.2849  134.5852  154.1374 C.1     1  UNL1        0.1020
     34 N         142.2250  133.4928  153.1114 N.1     1  UNL1       -0.1908
@<TRIPOS>BOND
     1     9     8    1
     2     9     1    1
     3     1     2   ar
     4     2     3   ar
     5     3    23    1
     6    23    24   am
     7    24    25    2
     8    24    27    1
     9    27    28   ar
    10    28    29   ar
    11    29    30   ar
    12    30    33    1
    13    33    34    3
    14    30    31   ar
    15    31    32   ar
    16     3     4   ar
    17     4     5   ar
    18     5     6   ar
    19     6     7    1
    20     9    10    1
    21    10    11    1
    22    11    12   ar
    23    12    13   ar
    24    13    21    1
    25    21    22    3
    26    13    14   ar
    27    14    15   ar
    28    15    16    1
    29    16    17    1
    30    16    18    2
    31    18     9    1
    32     6     1   ar
    33    15    11   ar
    34    32    27   ar
    35    23    26    1
    36    17    19    1
    37    17    20    1
@<TRIPOS>MOLECULE
*****
 34 37 0 0 0
SMALL
GASTEIGER

@<TRIPOS>ATOM
      1 C         140.4356  139.9518  160.2094 C.ar    1  UNL1        0.0523
      2 C         140.5978  140.0630  161.6964 C.ar    1  UNL1        0.0167
      3 C         139.3887  140.0714  162.5842 C.ar    1  UNL1        0.0505
      4 C         138.0175  139.9687  161.9848 C.ar    1  UNL1        0.0170
      5 C         137.8553  139.8575  160.4977 C.ar    1  UNL1        0.0307
      6 C         139.0645  139.8490  159.6100 C.ar    1  UNL1        0.1401
      7 F         138.9024  139.7378  158.1229 F       1  UNL1       -0.2044
      8 C         141.2712  138.4915  159.2669 C.3     1  UNL1        0.0602
      9 C         141.6448  139.9433  159.3216 C.3     1  UNL1        0.2179
     10 C         142.7241  139.4306  158.4149 C.3     1  UNL1        0.1808
     11 N         143.7571  140.3726  157.8712 N.ar    1  UNL1       -0.2384
     12 N         144.9312  140.1588  156.9626 N.ar    1  UNL1       -0.1584
     13 C         145.6105  141.4813  156.7640 C.ar    1  UNL1        0.1704
     14 C         144.8562  142.5125  157.5500 C.ar    1  UNL1        0.0576
     15 C         143.7107  141.8272  158.2342 C.ar    1  UNL1        0.1615
     16 C         142.6313  142.3399  159.1410 C.2     1  UNL1        0.3305
     17 N         142.5849  143.7946  159.5040 N.pl3   1  UNL1       -0.2452
     18 N         141.5984  141.3979  159.6846 N.2     1  UNL1       -0.0666
     19 H         143.2629  144.4128  159.1472 H       1  UNL1        0.2885
     20 H         141.8765  144.1310  160.0991 H       1  UNL1        0.2885
     21 C         146.8301  141.7292  155.9266 C.1     1  UNL1        0.1216
     22 N         148.0496  141.9771  155.0892 N.1     1  UNL1       -0.1892
     23 N         139.5508  140.1827  164.0712 N.am    1  UNL1       -0.2791
     24 C         139.7091  141.5307  164.7097 C.2     1  UNL1        0.2672
     25 O         139.7052  142.7676  163.8612 O.2     1  UNL1       -0.2682
     26 H         139.5534  139.3709  164.6281 H       1  UNL1        0.1552
     27 C         139.8713  141.6419  166.1968 C.ar    1  UNL1        0.1348
     28 C         140.3604  142.9232  166.8041 C.ar    1  UNL1        0.0245
     29 C         140.5226  143.0343  168.2912 C.ar    1  UNL1        0.0135
     30 C         140.1956  141.8642  169.1709 C.ar    1  UNL1        0.0876
     31 C         139.7064  140.5829  168.5634 C.ar    1  UNL1        0.1092
     32 N         139.5442  140.4717  167.0764 N.ar    1  UNL1       -0.2385
     33 C         140.3577  141.9754  170.6580 C.1     1  UNL1        0.1020
     34 N         140.5199  142.0866  172.1450 N.1     1  UNL1       -0.1908
@<TRIPOS>BOND
     1     9     8    1
     2     9     1    1
     3     1     2   ar
     4     2     3   ar
     5     3    23    1
     6    23    24   am
     7    24    25    2
     8    24    27    1
     9    27    28   ar
    10    28    29   ar
    11    29    30   ar
    12    30    33    1
    13    33    34    3
    14    30    31   ar
    15    31    32   ar
    16     3     4   ar
    17     4     5   ar
    18     5     6   ar
    19     6     7    1
    20     9    10    1
    21    10    11    1
    22    11    12   ar
    23    12    13   ar
    24    13    21    1
    25    21    22    3
    26    13    14   ar
    27    14    15   ar
    28    15    16    1
    29    16    17    1
    30    16    18    2
    31    18     9    1
    32     6     1   ar
    33    15    11   ar
    34    32    27   ar
    35    23    26    1
    36    17    19    1
    37    17    20    1
@<TRIPOS>MOLECULE
*****
 34 37 0 0 0
SMALL
GASTEIGER

@<TRIPOS>ATOM
      1 C         139.2976  139.9423  160.1693 C.ar    1  UNL1        0.0523
      2 C         139.6528  138.6921  159.4206 C.ar    1  UNL1        0.0167
      3 C         140.0042  138.7644  157.9640 C.ar    1  UNL1        0.0505
      4 C         140.0004  140.0870  157.2564 C.ar    1  UNL1        0.0170
      5 C         139.6451  141.3372  158.0052 C.ar    1  UNL1        0.0307
      6 C         139.2937  141.2648  159.4617 C.ar    1  UNL1        0.1401
      7 F         138.9384  142.5151  160.2105 F       1  UNL1       -0.2044
      8 C         137.5978  139.6159  161.0196 C.3     1  UNL1        0.0602
      9 C         138.9461  139.8700  161.6258 C.3     1  UNL1        0.2179
     10 C         138.1263  139.7095  162.8717 C.3     1  UNL1        0.1808
     11 N         138.7770  139.8282  164.2180 N.ar    1  UNL1       -0.2384
     12 N         138.2298  139.7189  165.6103 N.ar    1  UNL1       -0.1584
     13 C         139.3619  139.9306  166.5713 C.ar    1  UNL1        0.1704
     14 C         140.6089  140.1707  165.7728 C.ar    1  UNL1        0.0576
     15 C         140.2474  140.1074  164.3184 C.ar    1  UNL1        0.1615
     16 C         141.0671  140.2680  163.0725 C.2     1  UNL1        0.3305
     17 N         142.5374  140.5472  163.1729 N.pl3   1  UNL1       -0.2452
     18 N         140.4164  140.1493  161.7262 N.2     1  UNL1       -0.0666
     19 H         142.9645  140.6251  164.0565 H       1  UNL1        0.2885
     20 H         143.0754  140.6526  162.3552 H       1  UNL1        0.2885
     21 C         139.2643  139.9064  168.0679 C.1     1  UNL1        0.1216
     22 N         139.1667  139.8823  169.5645 N.1     1  UNL1       -0.1892
     23 N         140.3595  137.5141  157.2153 N.am    1  UNL1       -0.2791
     24 C         141.7890  137.0662  157.1389 C.2     1  UNL1        0.2672
     25 O         142.8633  137.8685  157.8112 O.2     1  UNL1       -0.2682
     26 H         139.6544  136.9875  156.7740 H       1  UNL1        0.1552
     27 C         142.1442  135.8159  156.3901 C.ar    1  UNL1        0.1348
     28 C         143.4169  135.0881  156.7068 C.ar    1  UNL1        0.0245
     29 C         143.7721  133.8378  155.9580 C.ar    1  UNL1        0.0135
     30 C         142.8546  133.3154  154.8926 C.ar    1  UNL1        0.0876
     31 C         141.5818  134.0433  154.5760 C.ar    1  UNL1        0.1092
     32 N         141.2266  135.2935  155.3247 N.ar    1  UNL1       -0.2385
     33 C         143.2098  132.0651  154.1438 C.1     1  UNL1        0.1020
     34 N         143.5649  130.8148  153.3951 N.1     1  UNL1       -0.1908
@<TRIPOS>BOND
     1     9     8    1
     2     9     1    1
     3     1     2   ar
     4     2     3   ar
     5     3    23    1
     6    23    24   am
     7    24    25    2
     8    24    27    1
     9    27    28   ar
    10    28    29   ar
    11    29    30   ar
    12    30    33    1
    13    33    34    3
    14    30    31   ar
    15    31    32   ar
    16     3     4   ar
    17     4     5   ar
    18     5     6   ar
    19     6     7    1
    20     9    10    1
    21    10    11    1
    22    11    12   ar
    23    12    13   ar
    24    13    21    1
    25    21    22    3
    26    13    14   ar
    27    14    15   ar
    28    15    16    1
    29    16    17    1
    30    16    18    2
    31    18     9    1
    32     6     1   ar
    33    15    11   ar
    34    32    27   ar
    35    23    26    1
    36    17    19    1
    37    17    20    1
@<TRIPOS>MOLECULE
*****
 34 37 0 0 0
SMALL
GASTEIGER

@<TRIPOS>ATOM
      1 C         139.7924  141.2062  160.0752 C.ar    1  UNL1        0.0523
      2 C         139.8976  141.5442  161.5328 C.ar    1  UNL1        0.0167
      3 C         138.8760  141.0225  162.4994 C.ar    1  UNL1        0.0505
      4 C         137.7492  140.1628  162.0082 C.ar    1  UNL1        0.0170
      5 C         137.6440  139.8248  160.5505 C.ar    1  UNL1        0.0307
      6 C         138.6657  140.3466  159.5841 C.ar    1  UNL1        0.1401
      7 F         138.5605  140.0086  158.1264 F       1  UNL1       -0.2044
      8 C         139.7956  142.8265  159.0294 C.3     1  UNL1        0.0602
      9 C         140.8140  141.7280  159.1087 C.3     1  UNL1        0.2179
     10 C         141.4819  142.6313  158.1146 C.3     1  UNL1        0.1808
     11 N         142.8134  142.2549  157.5355 N.ar    1  UNL1       -0.2384
     12 N         143.7061  142.9397  156.5434 N.ar    1  UNL1       -0.1584
     13 C         144.9215  142.0832  156.3452 C.ar    1  UNL1        0.1704
     14 C         144.7799  140.8691  157.2147 C.ar    1  UNL1        0.0576
     15 C         143.4770  140.9753  157.9503 C.ar    1  UNL1        0.1615
     16 C         142.8091  140.0720  158.9444 C.2     1  UNL1        0.3305
     17 N         143.4727  138.7924  159.3592 N.pl3   1  UNL1       -0.2452
     18 N         141.4776  140.4484  159.5235 N.2     1  UNL1       -0.0666
     19 H         144.3466  138.5453  158.9791 H       1  UNL1        0.2885
     20 H         143.0344  138.1995  160.0117 H       1  UNL1        0.2885
     21 C         146.0758  142.3873  155.4369 C.1     1  UNL1        0.1216
     22 N         147.2302  142.6915  154.5286 N.1     1  UNL1       -0.1892
     23 N         138.9812  141.3604  163.9570 N.am    1  UNL1       -0.2791
     24 C         139.8761  140.5543  164.8512 C.2     1  UNL1        0.2672
     25 O         140.6657  139.4102  164.2877 O.2     1  UNL1       -0.2682
     26 H         138.4630  142.1113  164.3268 H       1  UNL1        0.1552
     27 C         139.9813  140.8924  166.3088 C.ar    1  UNL1        0.1348
     28 C         139.4896  139.9216  167.3411 C.ar    1  UNL1        0.0245
     29 C         139.5949  140.2596  168.7988 C.ar    1  UNL1        0.0135
     30 C         140.1917  141.5684  169.2240 C.ar    1  UNL1        0.0876
     31 C         140.6833  142.5392  168.1915 C.ar    1  UNL1        0.1092
     32 N         140.5782  142.2012  166.7339 N.ar    1  UNL1       -0.2385
     33 C         140.2969  141.9064  170.6817 C.1     1  UNL1        0.1020
     34 N         140.4021  142.2445  172.1392 N.1     1  UNL1       -0.1908
@<TRIPOS>BOND
     1     9     8    1
     2     9     1    1
     3     1     2   ar
     4     2     3   ar
     5     3    23    1
     6    23    24   am
     7    24    25    2
     8    24    27    1
     9    27    28   ar
    10    28    29   ar
    11    29    30   ar
    12    30    33    1
    13    33    34    3
    14    30    31   ar
    15    31    32   ar
    16     3     4   ar
    17     4     5   ar
    18     5     6   ar
    19     6     7    1
    20     9    10    1
    21    10    11    1
    22    11    12   ar
    23    12    13   ar
    24    13    21    1
    25    21    22    3
    26    13    14   ar
    27    14    15   ar
    28    15    16    1
    29    16    17    1
    30    16    18    2
    31    18     9    1
    32     6     1   ar
    33    15    11   ar
    34    32    27   ar
    35    23    26    1
    36    17    19    1
    37    17    20    1
@<TRIPOS>MOLECULE
*****
 34 37 0 0 0
SMALL
GASTEIGER

@<TRIPOS>ATOM
      1 C         142.0949  141.7516  160.0154 C.ar    1  UNL1        0.0523
      2 C         141.8029  141.6550  161.4835 C.ar    1  UNL1        0.0167
      3 C         141.4598  142.8900  162.2628 C.ar    1  UNL1        0.0505
      4 C         141.4090  144.2215  161.5739 C.ar    1  UNL1        0.0170
      5 C         141.7010  144.3180  160.1057 C.ar    1  UNL1        0.0307
      6 C         142.0440  143.0830  159.3265 C.ar    1  UNL1        0.1401
      7 F         142.3361  143.1795  157.8584 F       1  UNL1       -0.2044
      8 C         143.8025  140.9042  159.7239 C.3     1  UNL1        0.0602
      9 C         142.4379  140.5166  159.2361 C.3     1  UNL1        0.2179
     10 C         143.2549  139.4163  158.6262 C.3     1  UNL1        0.1808
     11 N         142.5882  138.3573  157.7992 N.ar    1  UNL1       -0.2384
     12 N         143.1291  137.1588  157.0773 N.ar    1  UNL1       -0.1584
     13 C         141.9798  136.4595  156.4141 C.ar    1  UNL1        0.1704
     14 C         140.7285  137.2257  156.7260 C.ar    1  UNL1        0.0576
     15 C         141.1045  138.3986  157.5821 C.ar    1  UNL1        0.1615
     16 C         140.2876  139.4989  158.1920 C.2     1  UNL1        0.3305
     17 N         138.8040  139.5402  157.9748 N.pl3   1  UNL1       -0.2452
     18 N         140.9544  140.5579  159.0190 N.2     1  UNL1       -0.0666
     19 H         138.3664  138.8451  157.4320 H       1  UNL1        0.2885
     20 H         138.2678  140.2624  158.3751 H       1  UNL1        0.2885
     21 C         142.0665  135.2128  155.5845 C.1     1  UNL1        0.1216
     22 N         142.1532  133.9661  154.7549 N.1     1  UNL1       -0.1892
     23 N         141.1678  142.7934  163.7309 N.am    1  UNL1       -0.2791
     24 C         142.2933  142.6461  164.7115 C.2     1  UNL1        0.2672
     25 O         143.7109  142.5953  164.2239 O.2     1  UNL1       -0.2682
     26 H         140.2373  142.8267  164.0509 H       1  UNL1        0.1552
     27 C         142.0012  142.5495  166.1796 C.ar    1  UNL1        0.1348
     28 C         140.5986  142.7320  166.6787 C.ar    1  UNL1        0.0245
     29 C         140.3064  142.6354  168.1469 C.ar    1  UNL1        0.0135
     30 C         141.4170  142.3563  169.1158 C.ar    1  UNL1        0.0876
     31 C         142.8196  142.1738  168.6165 C.ar    1  UNL1        0.1092
     32 N         143.1118  142.2704  167.1485 N.ar    1  UNL1       -0.2385
     33 C         141.1248  142.2598  170.5839 C.1     1  UNL1        0.1020
     34 N         140.8327  142.1632  172.0520 N.1     1  UNL1       -0.1908
@<TRIPOS>BOND
     1     9     8    1
     2     9     1    1
     3     1     2   ar
     4     2     3   ar
     5     3    23    1
     6    23    24   am
     7    24    25    2
     8    24    27    1
     9    27    28   ar
    10    28    29   ar
    11    29    30   ar
    12    30    33    1
    13    33    34    3
    14    30    31   ar
    15    31    32   ar
    16     3     4   ar
    17     4     5   ar
    18     5     6   ar
    19     6     7    1
    20     9    10    1
    21    10    11    1
    22    11    12   ar
    23    12    13   ar
    24    13    21    1
    25    21    22    3
    26    13    14   ar
    27    14    15   ar
    28    15    16    1
    29    16    17    1
    30    16    18    2
    31    18     9    1
    32     6     1   ar
    33    15    11   ar
    34    32    27   ar
    35    23    26    1
    36    17    19    1
    37    17    20    1
@<TRIPOS>MOLECULE
*****
 34 37 0 0 0
SMALL
GASTEIGER

@<TRIPOS>ATOM
      1 C         142.0533  140.2830  161.5279 C.ar    1  UNL1        0.0523
      2 C         142.2002  138.9872  160.7869 C.ar    1  UNL1        0.0167
      3 C         143.0322  138.9263  159.5401 C.ar    1  UNL1        0.0505
      4 C         143.7171  140.1613  159.0346 C.ar    1  UNL1        0.0170
      5 C         143.5701  141.4572  159.7757 C.ar    1  UNL1        0.0307
      6 C         142.7381  141.5180  161.0223 C.ar    1  UNL1        0.1401
      7 F         142.5911  142.8138  161.7634 F       1  UNL1       -0.2044
      8 C         140.1961  140.7490  161.7572 C.3     1  UNL1        0.0602
      9 C         141.2213  140.3439  162.7746 C.3     1  UNL1        0.2179
     10 C         140.0332  140.5455  163.6679 C.3     1  UNL1        0.1808
     11 N         140.1593  140.3208  165.1456 N.ar    1  UNL1       -0.2384
     12 N         139.1701  140.4399  166.2669 N.ar    1  UNL1       -0.1584
     13 C         139.8729  140.0872  167.5443 C.ar    1  UNL1        0.1704
     14 C         141.2964  139.7502  167.2125 C.ar    1  UNL1        0.0576
     15 C         141.4734  139.8946  165.7300 C.ar    1  UNL1        0.1615
     16 C         142.6614  139.6930  164.8366 C.2     1  UNL1        0.3305
     17 N         143.9755  139.2667  165.4210 N.pl3   1  UNL1       -0.2452
     18 N         142.5353  139.9177  163.3589 N.2     1  UNL1       -0.0666
     19 H         144.0582  139.1193  166.3909 H       1  UNL1        0.2885
     20 H         144.7552  139.1344  164.8347 H       1  UNL1        0.2885
     21 C         139.2598  140.0739  168.9132 C.1     1  UNL1        0.1216
     22 N         138.6467  140.0605  170.2821 N.1     1  UNL1       -0.1892
     23 N         143.1792  137.6305  158.7991 N.am    1  UNL1       -0.2791
     24 C         142.5232  137.4525  157.4620 C.2     1  UNL1        0.2672
     25 O         141.7203  138.5704  156.8658 O.2     1  UNL1       -0.2682
     26 H         143.7062  136.8967  159.1904 H       1  UNL1        0.1552
     27 C         142.6703  136.1566  156.7210 C.ar    1  UNL1        0.1348
     28 C         142.3161  136.0806  155.2654 C.ar    1  UNL1        0.0245
     29 C         142.4631  134.7847  154.5244 C.ar    1  UNL1        0.0135
     30 C         142.9643  133.5648  155.2390 C.ar    1  UNL1        0.0876
     31 C         143.3185  133.6409  156.6947 C.ar    1  UNL1        0.1092
     32 N         143.1715  134.9367  157.4357 N.ar    1  UNL1       -0.2385
     33 C         143.1113  132.2689  154.4980 C.1     1  UNL1        0.1020
     34 N         143.2583  130.9730  153.7571 N.1     1  UNL1       -0.1908
@<TRIPOS>BOND
     1     9     8    1
     2     9     1    1
     3     1     2   ar
     4     2     3   ar
     5     3    23    1
     6    23    24   am
     7    24    25    2
     8    24    27    1
     9    27    28   ar
    10    28    29   ar
    11    29    30   ar
    12    30    33    1
    13    33    34    3
    14    30    31   ar
    15    31    32   ar
    16     3     4   ar
    17     4     5   ar
    18     5     6   ar
    19     6     7    1
    20     9    10    1
    21    10    11    1
    22    11    12   ar
    23    12    13   ar
    24    13    21    1
    25    21    22    3
    26    13    14   ar
    27    14    15   ar
    28    15    16    1
    29    16    17    1
    30    16    18    2
    31    18     9    1
    32     6     1   ar
    33    15    11   ar
    34    32    27   ar
    35    23    26    1
    36    17    19    1
    37    17    20    1
@<TRIPOS>MOLECULE
*****
 34 37 0 0 0
SMALL
GASTEIGER

@<TRIPOS>ATOM
      1 C         140.4281  141.3239  159.9231 C.ar    1  UNL1        0.0523
      2 C         140.5357  141.6526  161.3826 C.ar    1  UNL1        0.0167
      3 C         140.8941  140.5803  162.3685 C.ar    1  UNL1        0.0505
      4 C         141.1449  139.1793  161.8946 C.ar    1  UNL1        0.0170
      5 C         141.0372  138.8507  160.4350 C.ar    1  UNL1        0.0307
      6 C         140.6788  139.9231  159.4493 C.ar    1  UNL1        0.1401
      7 F         140.5712  139.5944  157.9896 F       1  UNL1       -0.2044
      8 C         138.6974  141.9541  159.3516 C.3     1  UNL1        0.0602
      9 C         140.0697  142.3962  158.9372 C.3     1  UNL1        0.2179
     10 C         139.2346  143.3149  158.0953 C.3     1  UNL1        0.1808
     11 N         139.8963  144.3033  157.1815 N.ar    1  UNL1       -0.2384
     12 N         139.3387  145.3290  156.2396 N.ar    1  UNL1       -0.1584
     13 C         140.4907  146.0326  155.5856 C.ar    1  UNL1        0.1704
     14 C         141.7603  145.4418  156.1232 C.ar    1  UNL1        0.0576
     15 C         141.3930  144.3731  157.1095 C.ar    1  UNL1        0.1615
     16 C         142.2280  143.4544  157.9514 C.2     1  UNL1        0.3305
     17 N         143.7246  143.5241  157.8795 N.pl3   1  UNL1       -0.2452
     18 N         141.5663  142.4659  158.8653 N.2     1  UNL1       -0.0666
     19 H         144.1589  144.1728  157.2797 H       1  UNL1        0.2885
     20 H         144.2726  142.9211  158.4321 H       1  UNL1        0.2885
     21 C         140.3907  147.1337  154.5719 C.1     1  UNL1        0.1216
     22 N         140.2906  148.2348  153.5582 N.1     1  UNL1       -0.1892
     23 N         141.0017  140.9090  163.8280 N.am    1  UNL1       -0.2791
     24 C         139.9098  140.4995  164.7716 C.2     1  UNL1        0.2672
     25 O         138.7104  139.7614  164.2555 O.2     1  UNL1       -0.2682
     26 H         141.7890  141.3934  164.1667 H       1  UNL1        0.1552
     27 C         140.0175  140.8283  166.2312 C.ar    1  UNL1        0.1348
     28 C         139.4063  139.9155  167.2525 C.ar    1  UNL1        0.0245
     29 C         139.5139  140.2443  168.7121 C.ar    1  UNL1        0.0135
     30 C         140.2328  141.4857  169.1503 C.ar    1  UNL1        0.0876
     31 C         140.8440  142.3984  168.1288 C.ar    1  UNL1        0.1092
     32 N         140.7364  142.0697  166.6693 N.ar    1  UNL1       -0.2385
     33 C         140.3404  141.8144  170.6099 C.1     1  UNL1        0.1020
     34 N         140.4480  142.1431  172.0694 N.1     1  UNL1       -0.1908
@<TRIPOS>BOND
     1     9     8    1
     2     9     1    1
     3     1     2   ar
     4     2     3   ar
     5     3    23    1
     6    23    24   am
     7    24    25    2
     8    24    27    1
     9    27    28   ar
    10    28    29   ar
    11    29    30   ar
    12    30    33    1
    13    33    34    3
    14    30    31   ar
    15    31    32   ar
    16     3     4   ar
    17     4     5   ar
    18     5     6   ar
    19     6     7    1
    20     9    10    1
    21    10    11    1
    22    11    12   ar
    23    12    13   ar
    24    13    21    1
    25    21    22    3
    26    13    14   ar
    27    14    15   ar
    28    15    16    1
    29    16    17    1
    30    16    18    2
    31    18     9    1
    32     6     1   ar
    33    15    11   ar
    34    32    27   ar
    35    23    26    1
    36    17    19    1
    37    17    20    1
