@<TRIPOS>MOLECULE
*****
 32 34 0 0 0
SMALL
GASTEIGER

@<TRIPOS>ATOM
      1 C         138.3399  142.3949  158.1202 C.ar    1  UNL1        0.1140
      2 C         138.3930  142.0773  159.5852 C.ar    1  UNL1        0.0275
      3 C         139.3321  143.0489  160.2364 C.ar    1  UNL1        0.0690
      4 C         139.8593  143.9671  159.1738 C.ar    1  UNL1        0.0717
      5 N         139.2461  143.5629  157.8659 N.ar    1  UNL1       -0.3223
      6 C         139.5921  144.3106  156.6125 C.3     1  UNL1        0.1379
      7 C         140.5513  145.4624  156.6669 C.3     1  UNL1        0.1671
      8 O         141.1646  145.8667  157.9748 O.3     1  UNL1       -0.3454
      9 C         140.8186  145.1190  159.2283 C.3     1  UNL1        0.1857
     10 N         136.4589  142.4032  156.3280 N.am    1  UNL1       -0.2903
     11 C         137.5238  141.6716  157.0902 C.2     1  UNL1        0.2621
     12 O         137.7725  140.2169  156.8225 O.2     1  UNL1       -0.2685
     13 H         136.2956  143.3580  156.5037 H       1  UNL1        0.1503
     14 C         135.6428  141.6798  155.2980 C.3     1  UNL1        0.2008
     15 C         134.3892  140.9625  155.7029 C.2     1  UNL1        0.3373
     16 O         133.0781  141.3306  155.0741 O.2     1  UNL1       -0.2482
     17 O         134.4469  139.8771  156.7365 O.3     1  UNL1       -0.4473
     18 C         132.3123  138.4085  156.9303 C.3     1  UNL1        0.0513
     19 C         133.2049  139.4819  157.4792 C.3     1  UNL1        0.2086
     20 C         139.6824  143.0945  161.6942 C.2     1  UNL1        0.2472
     21 O         139.9430  141.8213  162.4431 O.2     1  UNL1       -0.2701
     22 N         139.7722  144.4134  162.4032 N.am    1  UNL1       -0.2987
     23 H         139.6012  145.2491  161.9117 H       1  UNL1        0.1500
     24 C         140.1225  144.4589  163.8610 C.3     1  UNL1        0.0943
     25 C         141.5279  144.1781  164.3037 C.ar    1  UNL1       -0.0045
     26 C         141.8148  142.9998  165.1866 C.ar    1  UNL1       -0.0027
     27 C         143.2201  142.7190  165.6293 C.ar    1  UNL1       -0.0003
     28 C         144.3386  143.6163  165.1892 C.ar    1  UNL1       -0.0000
     29 C         144.0518  144.7946  164.3063 C.ar    1  UNL1       -0.0003
     30 C         142.6464  145.0754  163.8636 C.ar    1  UNL1       -0.0027
     31 C         139.0675  144.7854  164.8760 C.3     1  UNL1        0.0241
     32 C         137.7262  144.1175  164.8048 C.3     1  UNL1        0.0021
@<TRIPOS>BOND
     1    18    19    1
     2    19    17    1
     3    17    15    1
     4    15    16    2
     5    15    14    1
     6    14    10    1
     7    10    11   am
     8    11    12    2
     9    11     1    1
    10     1     2   ar
    11     2     3   ar
    12     3    20    1
    13    20    21    2
    14    20    22   am
    15    22    24    1
    16    24    31    1
    17    31    32    1
    18    24    25    1
    19    25    26   ar
    20    26    27   ar
    21    27    28   ar
    22    28    29   ar
    23    29    30   ar
    24     3     4   ar
    25     4     5   ar
    26     5     6    1
    27     6     7    1
    28     7     8    1
    29     8     9    1
    30     5     1   ar
    31    30    25   ar
    32     9     4    1
    33    10    13    1
    34    22    23    1
@<TRIPOS>MOLECULE
*****
 32 34 0 0 0
SMALL
GASTEIGER

@<TRIPOS>ATOM
      1 C         138.3229  142.1293  158.2278 C.ar    1  UNL1        0.1140
      2 C         138.4256  141.7905  159.6854 C.ar    1  UNL1        0.0275
      3 C         139.2838  142.8300  160.3434 C.ar    1  UNL1        0.0690
      4 C         139.7115  143.8111  159.2925 C.ar    1  UNL1        0.0717
      5 N         139.1176  143.3780  157.9849 N.ar    1  UNL1       -0.3223
      6 C         139.3771  144.1768  156.7421 C.3     1  UNL1        0.1379
      7 C         140.2306  145.4085  156.8068 C.3     1  UNL1        0.1671
      8 O         140.8245  145.8416  158.1144 O.3     1  UNL1       -0.3454
      9 C         140.5650  145.0429  159.3572 C.3     1  UNL1        0.1857
     10 N         136.4198  142.0012  156.4636 N.am    1  UNL1       -0.2903
     11 C         137.5594  141.3551  157.1944 C.2     1  UNL1        0.2621
     12 O         137.9355  139.9350  156.8916 O.2     1  UNL1       -0.2685
     13 H         136.1729  142.9333  156.6623 H       1  UNL1        0.1503
     14 C         135.6563  141.2271  155.4302 C.3     1  UNL1        0.2008
     15 C         134.3314  140.6161  155.7782 C.2     1  UNL1        0.3373
     16 O         133.0789  141.4359  155.6821 O.2     1  UNL1       -0.2482
     17 O         134.2590  139.1852  156.2224 O.3     1  UNL1       -0.4473
     18 C         132.9975  138.4284  158.3640 C.3     1  UNL1        0.0513
     19 C         133.0159  138.6670  156.8832 C.3     1  UNL1        0.2086
     20 C         139.6501  142.8796  161.7971 C.2     1  UNL1        0.2472
     21 O         141.0680  142.6372  162.2221 O.2     1  UNL1       -0.2701
     22 N         138.5983  143.1716  162.8261 N.am    1  UNL1       -0.2987
     23 H         137.6677  143.3307  162.5472 H       1  UNL1        0.1500
     24 C         138.9646  143.2212  164.2798 C.3     1  UNL1        0.0943
     25 C         139.0064  141.9572  165.0863 C.ar    1  UNL1       -0.0045
     26 C         138.1228  140.8026  164.7174 C.ar    1  UNL1       -0.0027
     27 C         138.1646  139.5386  165.5239 C.ar    1  UNL1       -0.0003
     28 C         139.0901  139.4291  166.6993 C.ar    1  UNL1       -0.0000
     29 C         139.9737  140.5837  167.0682 C.ar    1  UNL1       -0.0003
     30 C         139.9319  141.8477  166.2617 C.ar    1  UNL1       -0.0027
     31 C         139.2891  144.5349  164.9270 C.3     1  UNL1        0.0241
     32 C         138.3346  145.1414  165.9125 C.3     1  UNL1        0.0021
@<TRIPOS>BOND
     1    18    19    1
     2    19    17    1
     3    17    15    1
     4    15    16    2
     5    15    14    1
     6    14    10    1
     7    10    11   am
     8    11    12    2
     9    11     1    1
    10     1     2   ar
    11     2     3   ar
    12     3    20    1
    13    20    21    2
    14    20    22   am
    15    22    24    1
    16    24    31    1
    17    31    32    1
    18    24    25    1
    19    25    26   ar
    20    26    27   ar
    21    27    28   ar
    22    28    29   ar
    23    29    30   ar
    24     3     4   ar
    25     4     5   ar
    26     5     6    1
    27     6     7    1
    28     7     8    1
    29     8     9    1
    30     5     1   ar
    31    30    25   ar
    32     9     4    1
    33    10    13    1
    34    22    23    1
@<TRIPOS>MOLECULE
*****
 32 34 0 0 0
SMALL
GASTEIGER

@<TRIPOS>ATOM
      1 C         140.4850  146.0032  156.4674 C.ar    1  UNL1        0.1140
      2 C         140.2619  145.8589  157.9436 C.ar    1  UNL1        0.0275
      3 C         141.2351  144.8420  158.4622 C.ar    1  UNL1        0.0690
      4 C         142.0596  144.3579  157.3064 C.ar    1  UNL1        0.0717
      5 N         141.5960  145.0756  156.0735 N.ar    1  UNL1       -0.3223
      6 C         142.2455  144.7917  154.7516 C.3     1  UNL1        0.1379
      7 C         143.3585  143.7901  154.6626 C.3     1  UNL1        0.1671
      8 O         143.8221  143.0725  155.8955 O.3     1  UNL1       -0.3454
      9 C         143.1726  143.3564  157.2174 C.3     1  UNL1        0.1857
     10 N         140.3913  148.1458  155.0007 N.am    1  UNL1       -0.2903
     11 C         139.7297  146.9151  155.5465 C.2     1  UNL1        0.2621
     12 O         138.3128  146.5965  155.1715 O.2     1  UNL1       -0.2685
     13 H         141.3214  148.3549  155.2468 H       1  UNL1        0.1503
     14 C         139.6360  149.0577  154.0799 C.3     1  UNL1        0.2008
     15 C         139.3159  150.4590  154.5086 C.2     1  UNL1        0.3373
     16 O         140.0962  151.6113  153.9490 O.2     1  UNL1       -0.2482
     17 O         138.2153  150.7079  155.4969 O.3     1  UNL1       -0.4473
     18 C         138.1510  149.4817  157.7866 C.3     1  UNL1        0.0513
     19 C         138.5091  150.6864  156.9678 C.3     1  UNL1        0.2086
     20 C         141.3615  144.3888  159.8865 C.2     1  UNL1        0.2472
     21 O         141.3307  142.9253  160.2134 O.2     1  UNL1       -0.2701
     22 N         141.5188  145.3993  160.9840 N.am    1  UNL1       -0.2987
     23 H         141.5390  146.3599  160.7694 H       1  UNL1        0.1500
     24 C         141.6453  144.9461  162.4083 C.3     1  UNL1        0.0943
     25 C         140.4166  144.6096  163.2002 C.ar    1  UNL1       -0.0045
     26 C         140.5394  144.2045  164.6392 C.ar    1  UNL1       -0.0027
     27 C         139.3107  143.8680  165.4311 C.ar    1  UNL1       -0.0003
     28 C         137.9592  143.9366  164.7839 C.ar    1  UNL1       -0.0000
     29 C         137.8364  144.3416  163.3449 C.ar    1  UNL1       -0.0003
     30 C         139.0651  144.6781  162.5530 C.ar    1  UNL1       -0.0027
     31 C         143.0004  144.8294  163.0406 C.3     1  UNL1        0.0241
     32 C         144.0472  143.9560  162.4149 C.3     1  UNL1        0.0021
@<TRIPOS>BOND
     1    18    19    1
     2    19    17    1
     3    17    15    1
     4    15    16    2
     5    15    14    1
     6    14    10    1
     7    10    11   am
     8    11    12    2
     9    11     1    1
    10     1     2   ar
    11     2     3   ar
    12     3    20    1
    13    20    21    2
    14    20    22   am
    15    22    24    1
    16    24    31    1
    17    31    32    1
    18    24    25    1
    19    25    26   ar
    20    26    27   ar
    21    27    28   ar
    22    28    29   ar
    23    29    30   ar
    24     3     4   ar
    25     4     5   ar
    26     5     6    1
    27     6     7    1
    28     7     8    1
    29     8     9    1
    30     5     1   ar
    31    30    25   ar
    32     9     4    1
    33    10    13    1
    34    22    23    1
@<TRIPOS>MOLECULE
*****
 32 34 0 0 0
SMALL
GASTEIGER

@<TRIPOS>ATOM
      1 C         142.7607  142.9698  161.1438 C.ar    1  UNL1        0.1140
      2 C         143.2476  142.1394  162.2941 C.ar    1  UNL1        0.0275
      3 C         142.4988  142.5645  163.5223 C.ar    1  UNL1        0.0690
      4 C         141.5490  143.6576  163.1311 C.ar    1  UNL1        0.0717
      5 N         141.7109  143.9081  161.6610 N.ar    1  UNL1       -0.3223
      6 C         140.8815  144.9583  160.9834 C.3     1  UNL1        0.1379
      7 C         139.8902  145.7579  161.7758 C.3     1  UNL1        0.1671
      8 O         139.7284  145.5074  163.2459 O.3     1  UNL1       -0.3454
      9 C         140.5578  144.4572  163.9235 C.3     1  UNL1        0.1857
     10 N         144.6862  142.6050  159.4380 N.am    1  UNL1       -0.2903
     11 C         143.2394  142.8781  159.7252 C.2     1  UNL1        0.2621
     12 O         142.2716  143.0593  158.5937 O.2     1  UNL1       -0.2685
     13 H         145.3215  142.4861  160.1806 H       1  UNL1        0.1503
     14 C         145.1650  142.5133  158.0194 C.3     1  UNL1        0.2008
     15 C         145.1692  141.1898  157.3135 C.2     1  UNL1        0.3373
     16 O         144.4421  140.0203  157.9081 O.2     1  UNL1       -0.2482
     17 O         145.9006  141.0359  156.0130 O.3     1  UNL1       -0.4473
     18 C         147.1833  142.9440  154.8030 C.3     1  UNL1        0.0513
     19 C         147.1696  141.7985  155.7713 C.3     1  UNL1        0.2086
     20 C         142.6697  141.9962  164.8999 C.2     1  UNL1        0.2472
     21 O         143.8338  142.4183  165.7464 O.2     1  UNL1       -0.2701
     22 N         141.6763  141.0056  165.4312 N.am    1  UNL1       -0.2987
     23 H         140.9122  140.7285  164.8757 H       1  UNL1        0.1500
     24 C         141.8472  140.4374  166.8089 C.3     1  UNL1        0.0943
     25 C         141.1133  141.0452  167.9672 C.ar    1  UNL1       -0.0045
     26 C         141.3568  142.4773  168.3412 C.ar    1  UNL1       -0.0027
     27 C         140.6230  143.0851  169.4996 C.ar    1  UNL1       -0.0003
     28 C         139.6455  142.2609  170.2840 C.ar    1  UNL1       -0.0000
     29 C         139.4019  140.8289  169.9101 C.ar    1  UNL1       -0.0003
     30 C         140.1358  140.2210  168.7517 C.ar    1  UNL1       -0.0027
     31 C         142.7519  139.2612  167.0280 C.3     1  UNL1        0.0241
     32 C         143.1772  138.4152  165.8646 C.3     1  UNL1        0.0021
@<TRIPOS>BOND
     1    18    19    1
     2    19    17    1
     3    17    15    1
     4    15    16    2
     5    15    14    1
     6    14    10    1
     7    10    11   am
     8    11    12    2
     9    11     1    1
    10     1     2   ar
    11     2     3   ar
    12     3    20    1
    13    20    21    2
    14    20    22   am
    15    22    24    1
    16    24    31    1
    17    31    32    1
    18    24    25    1
    19    25    26   ar
    20    26    27   ar
    21    27    28   ar
    22    28    29   ar
    23    29    30   ar
    24     3     4   ar
    25     4     5   ar
    26     5     6    1
    27     6     7    1
    28     7     8    1
    29     8     9    1
    30     5     1   ar
    31    30    25   ar
    32     9     4    1
    33    10    13    1
    34    22    23    1
@<TRIPOS>MOLECULE
*****
 32 34 0 0 0
SMALL
GASTEIGER

@<TRIPOS>ATOM
      1 C         141.0053  138.4129  158.3756 C.ar    1  UNL1        0.1140
      2 C         141.2231  138.5347  159.8547 C.ar    1  UNL1        0.0275
      3 C         140.2166  139.5082  160.3926 C.ar    1  UNL1        0.0690
      4 C         139.3769  139.9880  159.2461 C.ar    1  UNL1        0.0717
      5 N         139.8643  139.3111  157.9994 N.ar    1  UNL1       -0.3223
      6 C         139.2062  139.5999  156.6828 C.3     1  UNL1        0.1379
      7 C         138.0607  140.5657  156.6129 C.3     1  UNL1        0.1671
      8 O         137.5733  141.2427  157.8596 O.3     1  UNL1       -0.3454
      9 C         138.2313  140.9538  159.1762 C.3     1  UNL1        0.1857
     10 N         141.0957  136.4810  156.6407 N.am    1  UNL1       -0.2903
     11 C         141.7907  137.5453  157.4373 C.2     1  UNL1        0.2621
     12 O         143.2709  137.7418  157.2955 O.2     1  UNL1       -0.2685
     13 H         140.1242  136.3520  156.7337 H       1  UNL1        0.1503
     14 C         141.8811  135.6133  155.7024 C.3     1  UNL1        0.2008
     15 C         142.4721  134.3240  156.1905 C.2     1  UNL1        0.3373
     16 O         141.7070  133.0429  156.0380 O.2     1  UNL1       -0.2482
     17 O         143.8285  134.3159  156.8311 O.3     1  UNL1       -0.4473
     18 C         144.9744  131.9961  156.5947 C.3     1  UNL1        0.0513
     19 C         144.3557  133.0577  157.4550 C.3     1  UNL1        0.2086
     20 C         140.0748  139.9281  161.8257 C.2     1  UNL1        0.2472
     21 O         141.2560  140.4830  162.5651 O.2     1  UNL1       -0.2701
     22 N         138.7516  139.7932  162.5193 N.am    1  UNL1       -0.2987
     23 H         137.9762  139.4291  162.0341 H       1  UNL1        0.1500
     24 C         138.6097  140.2132  163.9523 C.3     1  UNL1        0.0943
     25 C         138.6436  141.6685  164.3143 C.ar    1  UNL1       -0.0045
     26 C         139.5869  142.1560  165.3737 C.ar    1  UNL1       -0.0027
     27 C         139.6208  143.6113  165.7357 C.ar    1  UNL1       -0.0003
     28 C         138.7113  144.5790  165.0382 C.ar    1  UNL1       -0.0000
     29 C         137.7681  144.0914  163.9787 C.ar    1  UNL1       -0.0003
     30 C         137.7342  142.6362  163.6168 C.ar    1  UNL1       -0.0027
     31 C         138.4340  139.1778  165.0233 C.3     1  UNL1        0.0241
     32 C         139.3421  137.9848  165.0693 C.3     1  UNL1        0.0021
@<TRIPOS>BOND
     1    18    19    1
     2    19    17    1
     3    17    15    1
     4    15    16    2
     5    15    14    1
     6    14    10    1
     7    10    11   am
     8    11    12    2
     9    11     1    1
    10     1     2   ar
    11     2     3   ar
    12     3    20    1
    13    20    21    2
    14    20    22   am
    15    22    24    1
    16    24    31    1
    17    31    32    1
    18    24    25    1
    19    25    26   ar
    20    26    27   ar
    21    27    28   ar
    22    28    29   ar
    23    29    30   ar
    24     3     4   ar
    25     4     5   ar
    26     5     6    1
    27     6     7    1
    28     7     8    1
    29     8     9    1
    30     5     1   ar
    31    30    25   ar
    32     9     4    1
    33    10    13    1
    34    22    23    1
@<TRIPOS>MOLECULE
*****
 32 34 0 0 0
SMALL
GASTEIGER

@<TRIPOS>ATOM
      1 C         142.6910  138.3432  158.4367 C.ar    1  UNL1        0.1140
      2 C         142.2324  138.1379  159.8500 C.ar    1  UNL1        0.0275
      3 C         142.6845  139.3167  160.6599 C.ar    1  UNL1        0.0690
      4 C         143.4225  140.2507  159.7471 C.ar    1  UNL1        0.0717
      5 N         143.4265  139.6490  158.3730 N.ar    1  UNL1       -0.3223
      6 C         144.0993  140.3678  157.2415 C.3     1  UNL1        0.1379
      7 C         144.7682  141.6883  157.4839 C.3     1  UNL1        0.1671
      8 O         144.7641  142.2900  158.8579 O.3     1  UNL1       -0.3454
      9 C         144.0913  141.5712  159.9895 C.3     1  UNL1        0.1857
     10 N         143.6205  136.7914  156.5716 N.am    1  UNL1       -0.2903
     11 C         142.4555  137.4071  157.2885 C.2     1  UNL1        0.2621
     12 O         141.0551  137.0866  156.8572 O.2     1  UNL1       -0.2685
     13 H         144.5397  137.0018  156.8547 H       1  UNL1        0.1503
     14 C         143.3850  135.8553  155.4235 C.3     1  UNL1        0.2008
     15 C         142.8504  134.4770  155.6771 C.2     1  UNL1        0.3373
     16 O         142.0334  133.7844  154.6270 O.2     1  UNL1       -0.2482
     17 O         143.1328  133.7914  156.9810 O.3     1  UNL1       -0.4473
     18 C         144.8745  131.9316  156.4731 C.3     1  UNL1        0.0513
     19 C         143.5313  132.3453  156.9971 C.3     1  UNL1        0.2086
     20 C         142.4413  139.5252  162.1253 C.2     1  UNL1        0.2472
     21 O         141.8910  140.8314  162.6159 O.2     1  UNL1       -0.2701
     22 N         142.7484  138.4272  163.1001 N.am    1  UNL1       -0.2987
     23 H         143.1095  137.5698  162.7781 H       1  UNL1        0.1500
     24 C         142.5052  138.6356  164.5655 C.3     1  UNL1        0.0943
     25 C         141.1049  138.6197  165.1031 C.ar    1  UNL1       -0.0045
     26 C         140.6616  139.6751  166.0724 C.ar    1  UNL1       -0.0027
     27 C         139.2614  139.6592  166.6100 C.ar    1  UNL1       -0.0003
     28 C         138.3044  138.5878  166.1783 C.ar    1  UNL1       -0.0000
     29 C         138.7476  137.5324  165.2090 C.ar    1  UNL1       -0.0003
     30 C         140.1479  137.5483  164.6714 C.ar    1  UNL1       -0.0027
     31 C         143.6623  138.8599  165.4933 C.3     1  UNL1        0.0241
     32 C         143.8760  137.9428  166.6609 C.3     1  UNL1        0.0021
@<TRIPOS>BOND
     1    18    19    1
     2    19    17    1
     3    17    15    1
     4    15    16    2
     5    15    14    1
     6    14    10    1
     7    10    11   am
     8    11    12    2
     9    11     1    1
    10     1     2   ar
    11     2     3   ar
    12     3    20    1
    13    20    21    2
    14    20    22   am
    15    22    24    1
    16    24    31    1
    17    31    32    1
    18    24    25    1
    19    25    26   ar
    20    26    27   ar
    21    27    28   ar
    22    28    29   ar
    23    29    30   ar
    24     3     4   ar
    25     4     5   ar
    26     5     6    1
    27     6     7    1
    28     7     8    1
    29     8     9    1
    30     5     1   ar
    31    30    25   ar
    32     9     4    1
    33    10    13    1
    34    22    23    1
@<TRIPOS>MOLECULE
*****
 32 34 0 0 0
SMALL
GASTEIGER

@<TRIPOS>ATOM
      1 C         142.4014  137.5100  158.2090 C.ar    1  UNL1        0.1140
      2 C         142.8215  137.7030  159.6359 C.ar    1  UNL1        0.0275
      3 C         141.7965  138.5678  160.3079 C.ar    1  UNL1        0.0690
      4 C         140.7429  138.9092  159.2963 C.ar    1  UNL1        0.0717
      5 N         141.1167  138.2555  157.9991 N.ar    1  UNL1       -0.3223
      6 C         140.2391  138.4234  156.7943 C.3     1  UNL1        0.1379
      7 C         138.9876  139.2451  156.8868 C.3     1  UNL1        0.1671
      8 O         138.6138  139.8989  158.1841 O.3     1  UNL1       -0.3454
      9 C         139.4915  139.7309  159.3888 C.3     1  UNL1        0.1857
     10 N         143.0538  135.2139  157.1829 N.am    1  UNL1       -0.2903
     11 C         143.1367  136.7117  157.1736 C.2     1  UNL1        0.2621
     12 O         143.9550  137.4109  156.1290 O.2     1  UNL1       -0.2685
     13 H         142.5167  134.7549  157.8686 H       1  UNL1        0.1503
     14 C         143.7891  134.4156  156.1476 C.3     1  UNL1        0.2008
     15 C         143.7220  132.9173  156.1687 C.2     1  UNL1        0.3373
     16 O         144.9585  132.1074  155.9137 O.2     1  UNL1       -0.2482
     17 O         142.4183  132.2289  156.4450 O.3     1  UNL1       -0.4473
     18 C         140.7028  131.1803  154.7994 C.3     1  UNL1        0.0513
     19 C         141.9780  131.0827  155.5832 C.3     1  UNL1        0.2086
     20 C         141.8209  139.0129  161.7402 C.2     1  UNL1        0.2472
     21 O         141.5312  140.4434  162.0860 O.2     1  UNL1       -0.2701
     22 N         142.1349  138.0275  162.8267 N.am    1  UNL1       -0.2987
     23 H         142.3251  137.0886  162.5997 H       1  UNL1        0.1500
     24 C         142.1592  138.4727  164.2589 C.3     1  UNL1        0.0943
     25 C         140.8758  138.6133  165.0225 C.ar    1  UNL1       -0.0045
     26 C         140.7131  139.7236  166.0178 C.ar    1  UNL1       -0.0027
     27 C         139.4297  139.8643  166.7814 C.ar    1  UNL1       -0.0003
     28 C         138.3090  138.8945  166.5497 C.ar    1  UNL1       -0.0000
     29 C         138.4718  137.7842  165.5544 C.ar    1  UNL1       -0.0003
     30 C         139.7552  137.6436  164.7908 C.ar    1  UNL1       -0.0027
     31 C         143.4670  138.7772  164.9274 C.3     1  UNL1        0.0241
     32 C         144.5323  139.5276  164.1843 C.3     1  UNL1        0.0021
@<TRIPOS>BOND
     1    18    19    1
     2    19    17    1
     3    17    15    1
     4    15    16    2
     5    15    14    1
     6    14    10    1
     7    10    11   am
     8    11    12    2
     9    11     1    1
    10     1     2   ar
    11     2     3   ar
    12     3    20    1
    13    20    21    2
    14    20    22   am
    15    22    24    1
    16    24    31    1
    17    31    32    1
    18    24    25    1
    19    25    26   ar
    20    26    27   ar
    21    27    28   ar
    22    28    29   ar
    23    29    30   ar
    24     3     4   ar
    25     4     5   ar
    26     5     6    1
    27     6     7    1
    28     7     8    1
    29     8     9    1
    30     5     1   ar
    31    30    25   ar
    32     9     4    1
    33    10    13    1
    34    22    23    1
@<TRIPOS>MOLECULE
*****
 32 34 0 0 0
SMALL
GASTEIGER

@<TRIPOS>ATOM
      1 C         139.6105  142.8816  162.2692 C.ar    1  UNL1        0.1140
      2 C         140.1968  142.7194  163.6403 C.ar    1  UNL1        0.0275
      3 C         139.8501  141.3457  164.1331 C.ar    1  UNL1        0.0690
      4 C         139.0494  140.6590  163.0665 C.ar    1  UNL1        0.0717
      5 N         138.9014  141.6083  161.9146 N.ar    1  UNL1       -0.3223
      6 C         138.1400  141.1905  160.6916 C.3     1  UNL1        0.1379
      7 C         137.5267  139.8235  160.6206 C.3     1  UNL1        0.1671
      8 O         137.6747  138.8743  161.7725 O.3     1  UNL1       -0.3454
      9 C         138.4361  139.2920  162.9955 C.3     1  UNL1        0.1857
     10 N         140.6914  144.1345  160.2661 N.am    1  UNL1       -0.2903
     11 C         139.7150  144.1028  161.4045 C.2     1  UNL1        0.2621
     12 O         138.8432  145.2923  161.6779 O.2     1  UNL1       -0.2685
     13 H         141.2637  143.3538  160.0866 H       1  UNL1        0.1503
     14 C         140.7959  145.3557  159.4014 C.3     1  UNL1        0.2008
     15 C         141.6928  145.3488  158.1991 C.2     1  UNL1        0.3373
     16 O         142.9012  144.4605  158.1699 O.2     1  UNL1       -0.2482
     17 O         141.3813  146.2302  157.0260 O.3     1  UNL1       -0.4473
     18 C         139.1010  147.2077  156.2548 C.3     1  UNL1        0.0513
     19 C         140.0814  146.0731  156.2942 C.3     1  UNL1        0.2086
     20 C         140.2361  140.7613  165.4595 C.2     1  UNL1        0.2472
     21 O         139.2096  140.0571  166.2962 O.2     1  UNL1       -0.2701
     22 N         141.6489  140.8813  165.9493 N.am    1  UNL1       -0.2987
     23 H         142.3227  141.3435  165.4002 H       1  UNL1        0.1500
     24 C         142.0350  140.2969  167.2758 C.3     1  UNL1        0.0943
     25 C         141.5376  140.9234  168.5447 C.ar    1  UNL1       -0.0045
     26 C         141.2371  140.0648  169.7373 C.ar    1  UNL1       -0.0027
     27 C         140.7397  140.6913  171.0062 C.ar    1  UNL1       -0.0003
     28 C         140.5429  142.1764  171.0825 C.ar    1  UNL1       -0.0000
     29 C         140.8434  143.0349  169.8898 C.ar    1  UNL1       -0.0003
     30 C         141.3408  142.4084  168.6209 C.ar    1  UNL1       -0.0027
     31 C         142.9184  139.0860  167.3332 C.3     1  UNL1        0.0241
     32 C         143.4179  138.4613  166.0643 C.3     1  UNL1        0.0021
@<TRIPOS>BOND
     1    18    19    1
     2    19    17    1
     3    17    15    1
     4    15    16    2
     5    15    14    1
     6    14    10    1
     7    10    11   am
     8    11    12    2
     9    11     1    1
    10     1     2   ar
    11     2     3   ar
    12     3    20    1
    13    20    21    2
    14    20    22   am
    15    22    24    1
    16    24    31    1
    17    31    32    1
    18    24    25    1
    19    25    26   ar
    20    26    27   ar
    21    27    28   ar
    22    28    29   ar
    23    29    30   ar
    24     3     4   ar
    25     4     5   ar
    26     5     6    1
    27     6     7    1
    28     7     8    1
    29     8     9    1
    30     5     1   ar
    31    30    25   ar
    32     9     4    1
    33    10    13    1
    34    22    23    1
@<TRIPOS>MOLECULE
*****
 32 34 0 0 0
SMALL
GASTEIGER

@<TRIPOS>ATOM
      1 C         138.6115  142.8604  157.6082 C.ar    1  UNL1        0.1140
      2 C         138.2988  142.2275  158.9317 C.ar    1  UNL1        0.0275
      3 C         139.1817  142.8585  159.9673 C.ar    1  UNL1        0.0690
      4 C         140.0399  143.8813  159.2839 C.ar    1  UNL1        0.0717
      5 N         139.6876  143.8825  157.8258 N.ar    1  UNL1       -0.3223
      6 C         140.3920  144.8142  156.8848 C.3     1  UNL1        0.1379
      7 C         141.4489  145.7446  157.4017 C.3     1  UNL1        0.1671
      8 O         141.8013  145.7434  158.8597 O.3     1  UNL1       -0.3454
      9 C         141.0968  144.8118  159.8008 C.3     1  UNL1        0.1857
     10 N         137.6456  141.1033  155.9560 N.am    1  UNL1       -0.2903
     11 C         137.9621  142.5293  156.2972 C.2     1  UNL1        0.2621
     12 O         137.6292  143.6241  155.3275 O.2     1  UNL1       -0.2685
     13 H         137.8640  140.3847  156.5925 H       1  UNL1        0.1503
     14 C         136.9962  140.7722  154.6450 C.3     1  UNL1        0.2008
     15 C         135.8042  139.8625  154.6071 C.2     1  UNL1        0.3373
     16 O         135.9796  138.3874  154.8147 O.2     1  UNL1       -0.2482
     17 O         134.4367  140.4280  154.3616 O.3     1  UNL1       -0.4473
     18 C         133.7017  139.9381  156.8050 C.3     1  UNL1        0.0513
     19 C         133.5108  140.6791  155.5148 C.3     1  UNL1        0.2086
     20 C         139.2026  142.5251  161.4297 C.2     1  UNL1        0.2472
     21 O         140.4850  142.6182  162.2019 O.2     1  UNL1       -0.2701
     22 N         137.9408  142.0986  162.1198 N.am    1  UNL1       -0.2987
     23 H         137.0990  142.0375  161.6130 H       1  UNL1        0.1500
     24 C         137.9617  141.7652  163.5822 C.3     1  UNL1        0.0943
     25 C         138.2597  140.3644  164.0279 C.ar    1  UNL1       -0.0045
     26 C         138.5853  139.3080  163.0140 C.ar    1  UNL1       -0.0027
     27 C         138.8833  137.9071  163.4597 C.ar    1  UNL1       -0.0003
     28 C         138.8556  137.5626  164.9193 C.ar    1  UNL1       -0.0000
     29 C         138.5300  138.6189  165.9332 C.ar    1  UNL1       -0.0003
     30 C         138.2321  140.0198  165.4875 C.ar    1  UNL1       -0.0027
     31 C         137.6846  142.8328  164.5987 C.3     1  UNL1        0.0241
     32 C         138.0638  144.2560  164.3140 C.3     1  UNL1        0.0021
@<TRIPOS>BOND
     1    18    19    1
     2    19    17    1
     3    17    15    1
     4    15    16    2
     5    15    14    1
     6    14    10    1
     7    10    11   am
     8    11    12    2
     9    11     1    1
    10     1     2   ar
    11     2     3   ar
    12     3    20    1
    13    20    21    2
    14    20    22   am
    15    22    24    1
    16    24    31    1
    17    31    32    1
    18    24    25    1
    19    25    26   ar
    20    26    27   ar
    21    27    28   ar
    22    28    29   ar
    23    29    30   ar
    24     3     4   ar
    25     4     5   ar
    26     5     6    1
    27     6     7    1
    28     7     8    1
    29     8     9    1
    30     5     1   ar
    31    30    25   ar
    32     9     4    1
    33    10    13    1
    34    22    23    1
