@<TRIPOS>MOLECULE
*****
 26 28 0 0 0
SMALL
GASTEIGER

@<TRIPOS>ATOM
      1 C         138.1851  139.6962  170.2724 C.ar    1  UNL1        0.1232
      2 C         138.4460  139.8085  168.7995 C.ar    1  UNL1        0.0360
      3 C         139.9228  139.9821  168.6022 C.ar    1  UNL1        0.0372
      4 C         140.7582  140.1440  167.3670 C.ar    1  UNL1        0.0032
      5 C         142.2454  140.3010  167.4827 C.ar    1  UNL1        0.0025
      6 C         142.8973  140.2960  168.8337 C.ar    1  UNL1        0.0032
      7 C         142.0619  140.1341  170.0689 C.ar    1  UNL1        0.0375
      8 C         140.5746  139.9771  169.9532 C.ar    1  UNL1        0.1448
      9 O         139.5006  139.8004  170.9854 O.2     1  UNL1       -0.4578
     10 C         143.0809  140.4629  166.2475 C.ar    1  UNL1        0.0305
     11 C         143.4105  141.8353  165.7396 C.ar    1  UNL1        0.0394
     12 C         144.2460  141.9973  164.5044 C.ar    1  UNL1        0.1469
     13 C         144.7518  140.7869  163.7770 C.ar    1  UNL1        0.0395
     14 C         144.4222  139.4145  164.2849 C.ar    1  UNL1        0.0328
     15 C         143.5867  139.2526  165.5201 C.ar    1  UNL1        0.1403
     16 F         143.2571  137.8802  166.0280 F       1  UNL1       -0.2042
     17 O         144.5756  143.3697  163.9966 O.3     1  UNL1       -0.4045
     18 C         143.5012  144.4119  163.9004 C.3     1  UNL1        0.5753
     19 F         142.4266  145.4542  163.8042 F       1  UNL1       -0.1328
     20 F         144.2657  145.2876  164.8483 F       1  UNL1       -0.1328
     21 F         142.7366  143.5362  162.9525 F       1  UNL1       -0.1328
     22 C         136.8441  139.5121  170.9187 C.3     1  UNL1        0.0704
     23 C         136.1667  138.1745  170.8729 C.3     1  UNL1        0.0497
     24 O         137.0642  136.1682  172.2583 O.co2   1  UNL1       -0.5492
     25 C         136.1136  137.3182  172.1033 C.2     1  UNL1        0.0508
     26 O         135.1099  137.6118  173.1787 O.co2   1  UNL1       -0.5492
@<TRIPOS>UNITY_ATOM_ATTR
24 1
charge -1
@<TRIPOS>BOND
     1    24    25   ar
     2    25    26   ar
     3    25    23    1
     4    23    22    1
     5    22     1    1
     6     1     2   ar
     7     2     3   ar
     8     3     4   ar
     9     4     5   ar
    10     5    10    1
    11    10    11   ar
    12    11    12   ar
    13    12    17    1
    14    17    18    1
    15    18    19    1
    16    18    20    1
    17    18    21    1
    18    12    13   ar
    19    13    14   ar
    20    14    15   ar
    21    15    16    1
    22     5     6   ar
    23     6     7   ar
    24     7     8   ar
    25     8     9   ar
    26     9     1   ar
    27     8     3   ar
    28    15    10   ar
@<TRIPOS>MOLECULE
*****
 26 28 0 0 0
SMALL
GASTEIGER

@<TRIPOS>ATOM
      1 C         138.2476  139.6520  169.4925 C.ar    1  UNL1        0.1232
      2 C         139.6059  140.2751  169.3638 C.ar    1  UNL1        0.0360
      3 C         140.0774  140.0722  167.9544 C.ar    1  UNL1        0.0372
      4 C         141.3404  140.4724  167.2511 C.ar    1  UNL1        0.0032
      5 C         141.5364  140.1240  165.8054 C.ar    1  UNL1        0.0025
      6 C         140.4694  139.3754  165.0629 C.ar    1  UNL1        0.0032
      7 C         139.2064  138.9753  165.7662 C.ar    1  UNL1        0.0375
      8 C         139.0104  139.3237  167.2119 C.ar    1  UNL1        0.1448
      9 O         137.8795  139.0640  168.1626 O.2     1  UNL1       -0.4578
     10 C         142.7995  140.5241  165.1020 C.ar    1  UNL1        0.0305
     11 C         142.9311  141.9013  164.5224 C.ar    1  UNL1        0.0394
     12 C         144.1941  142.3015  163.8190 C.ar    1  UNL1        0.1469
     13 C         145.3255  141.3244  163.6953 C.ar    1  UNL1        0.0395
     14 C         145.1939  139.9472  164.2749 C.ar    1  UNL1        0.0328
     15 C         143.9309  139.5470  164.9783 C.ar    1  UNL1        0.1403
     16 F         143.7992  138.1698  165.5579 F       1  UNL1       -0.2042
     17 O         144.3257  143.6787  163.2394 O.3     1  UNL1       -0.4045
     18 C         143.3847  144.7655  163.6673 C.3     1  UNL1        0.5753
     19 F         142.4436  145.8525  164.0952 F       1  UNL1       -0.1328
     20 F         142.5528  144.5276  162.4420 F       1  UNL1       -0.1328
     21 F         144.2165  145.0034  164.8926 F       1  UNL1       -0.1328
     22 C         137.4052  139.6222  170.7333 C.3     1  UNL1        0.0704
     23 C         136.2332  138.6902  170.8219 C.3     1  UNL1        0.0497
     24 O         135.1537  137.9986  173.0815 O.co2   1  UNL1       -0.5492
     25 C         136.1235  137.7302  171.9692 C.2     1  UNL1        0.0508
     26 O         136.9836  136.5017  172.0041 O.co2   1  UNL1       -0.5492
@<TRIPOS>UNITY_ATOM_ATTR
24 1
charge -1
@<TRIPOS>BOND
     1    24    25   ar
     2    25    26   ar
     3    25    23    1
     4    23    22    1
     5    22     1    1
     6     1     2   ar
     7     2     3   ar
     8     3     4   ar
     9     4     5   ar
    10     5    10    1
    11    10    11   ar
    12    11    12   ar
    13    12    17    1
    14    17    18    1
    15    18    19    1
    16    18    20    1
    17    18    21    1
    18    12    13   ar
    19    13    14   ar
    20    14    15   ar
    21    15    16    1
    22     5     6   ar
    23     6     7   ar
    24     7     8   ar
    25     8     9   ar
    26     9     1   ar
    27     8     3   ar
    28    15    10   ar
@<TRIPOS>MOLECULE
*****
 26 28 0 0 0
SMALL
GASTEIGER

@<TRIPOS>ATOM
      1 C         143.1297  138.4142  169.4326 C.ar    1  UNL1        0.1232
      2 C         142.7451  139.8598  169.3213 C.ar    1  UNL1        0.0360
      3 C         142.8363  140.2538  167.8768 C.ar    1  UNL1        0.0372
      4 C         142.5748  141.5519  167.1721 C.ar    1  UNL1        0.0032
      5 C         142.7542  141.6479  165.6860 C.ar    1  UNL1        0.0025
      6 C         143.1951  140.4458  164.9046 C.ar    1  UNL1        0.0032
      7 C         143.4566  139.1477  165.6093 C.ar    1  UNL1        0.0375
      8 C         143.2772  139.0518  167.0954 C.ar    1  UNL1        0.1448
      9 O         143.4585  137.9148  168.0569 O.2     1  UNL1       -0.4578
     10 C         142.4927  142.9460  164.9813 C.ar    1  UNL1        0.0305
     11 C         141.0841  143.3676  164.6842 C.ar    1  UNL1        0.0394
     12 C         140.8226  144.6656  163.9794 C.ar    1  UNL1        0.1469
     13 C         141.9696  145.5421  163.5718 C.ar    1  UNL1        0.0395
     14 C         143.3782  145.1205  163.8689 C.ar    1  UNL1        0.0328
     15 C         143.6397  143.8224  164.5736 C.ar    1  UNL1        0.1403
     16 F         145.0482  143.4008  164.8707 F       1  UNL1       -0.2042
     17 O         139.4140  145.0872  163.6823 O.3     1  UNL1       -0.4045
     18 C         138.2725  144.4742  164.4380 C.3     1  UNL1        0.5753
     19 F         137.1309  143.8612  165.1937 F       1  UNL1       -0.1328
     20 F         137.9591  143.6030  163.2578 F       1  UNL1       -0.1328
     21 F         138.5859  145.3453  165.6181 F       1  UNL1       -0.1328
     22 C         143.1771  137.6093  170.6975 C.3     1  UNL1        0.0704
     23 C         144.0710  136.4084  170.7892 C.3     1  UNL1        0.0497
     24 O         146.3879  137.2216  171.6382 O.co2   1  UNL1       -0.5492
     25 C         145.1679  136.3662  171.8115 C.2     1  UNL1        0.0508
     26 O         145.0448  135.4686  173.0070 O.co2   1  UNL1       -0.5492
@<TRIPOS>UNITY_ATOM_ATTR
24 1
charge -1
@<TRIPOS>BOND
     1    24    25   ar
     2    25    26   ar
     3    25    23    1
     4    23    22    1
     5    22     1    1
     6     1     2   ar
     7     2     3   ar
     8     3     4   ar
     9     4     5   ar
    10     5    10    1
    11    10    11   ar
    12    11    12   ar
    13    12    17    1
    14    17    18    1
    15    18    19    1
    16    18    20    1
    17    18    21    1
    18    12    13   ar
    19    13    14   ar
    20    14    15   ar
    21    15    16    1
    22     5     6   ar
    23     6     7   ar
    24     7     8   ar
    25     8     9   ar
    26     9     1   ar
    27     8     3   ar
    28    15    10   ar
@<TRIPOS>MOLECULE
*****
 26 28 0 0 0
SMALL
GASTEIGER

@<TRIPOS>ATOM
      1 C         142.2730  139.8674  169.0608 C.ar    1  UNL1        0.1232
      2 C         141.0264  140.3755  168.3992 C.ar    1  UNL1        0.0360
      3 C         141.0454  139.9269  166.9679 C.ar    1  UNL1        0.0372
      4 C         140.0794  140.1321  165.8389 C.ar    1  UNL1        0.0032
      5 C         140.3718  139.5520  164.4870 C.ar    1  UNL1        0.0025
      6 C         141.6302  138.7667  164.2640 C.ar    1  UNL1        0.0032
      7 C         142.5962  138.5615  165.3930 C.ar    1  UNL1        0.0375
      8 C         142.3038  139.1416  166.7450 C.ar    1  UNL1        0.1448
      9 O         143.0625  139.1049  168.0384 O.2     1  UNL1       -0.4578
     10 C         139.4058  139.7571  163.3578 C.ar    1  UNL1        0.0305
     11 C         139.0460  141.1465  162.9218 C.ar    1  UNL1        0.0394
     12 C         138.0800  141.3517  161.7927 C.ar    1  UNL1        0.1469
     13 C         137.4738  140.1674  161.0997 C.ar    1  UNL1        0.0395
     14 C         137.8337  138.7781  161.5358 C.ar    1  UNL1        0.0328
     15 C         138.7997  138.5729  162.6649 C.ar    1  UNL1        0.1403
     16 F         139.1595  137.1835  163.1009 F       1  UNL1       -0.2042
     17 O         137.7202  142.7410  161.3567 O.3     1  UNL1       -0.4045
     18 C         138.3542  143.9247  162.0251 C.3     1  UNL1        0.5753
     19 F         138.9883  145.1085  162.6934 F       1  UNL1       -0.1328
     20 F         137.2573  143.9347  163.0480 F       1  UNL1       -0.1328
     21 F         139.4512  143.9148  161.0021 F       1  UNL1       -0.1328
     22 C         142.6619  140.0839  170.4932 C.3     1  UNL1        0.0704
     23 C         142.3305  141.3794  171.1728 C.3     1  UNL1        0.0497
     24 O         141.6822  143.7777  170.4126 O.co2   1  UNL1       -0.5492
     25 C         142.6998  142.6815  170.5261 C.2     1  UNL1        0.0508
     26 O         144.0866  142.8873  169.9928 O.co2   1  UNL1       -0.5492
@<TRIPOS>UNITY_ATOM_ATTR
24 1
charge -1
@<TRIPOS>BOND
     1    24    25   ar
     2    25    26   ar
     3    25    23    1
     4    23    22    1
     5    22     1    1
     6     1     2   ar
     7     2     3   ar
     8     3     4   ar
     9     4     5   ar
    10     5    10    1
    11    10    11   ar
    12    11    12   ar
    13    12    17    1
    14    17    18    1
    15    18    19    1
    16    18    20    1
    17    18    21    1
    18    12    13   ar
    19    13    14   ar
    20    14    15   ar
    21    15    16    1
    22     5     6   ar
    23     6     7   ar
    24     7     8   ar
    25     8     9   ar
    26     9     1   ar
    27     8     3   ar
    28    15    10   ar
@<TRIPOS>MOLECULE
*****
 26 28 0 0 0
SMALL
GASTEIGER

@<TRIPOS>ATOM
      1 C         141.5888  140.6513  168.4043 C.ar    1  UNL1        0.1232
      2 C         140.5684  141.1449  167.4219 C.ar    1  UNL1        0.0360
      3 C         141.2782  141.9751  166.3938 C.ar    1  UNL1        0.0372
      4 C         140.7843  142.7157  165.1866 C.ar    1  UNL1        0.0032
      5 C         141.7497  143.4759  164.3262 C.ar    1  UNL1        0.0025
      6 C         143.2089  143.4954  164.6732 C.ar    1  UNL1        0.0032
      7 C         143.7027  142.7547  165.8804 C.ar    1  UNL1        0.0375
      8 C         142.7374  141.9945  166.7407 C.ar    1  UNL1        0.1448
      9 O         142.9294  141.1764  167.9832 O.2     1  UNL1       -0.4578
     10 C         141.2558  144.2166  163.1189 C.ar    1  UNL1        0.0305
     11 C         141.9659  144.0688  161.8060 C.ar    1  UNL1        0.0394
     12 C         141.4721  144.8095  160.5987 C.ar    1  UNL1        0.1469
     13 C         140.2682  145.6980  160.7044 C.ar    1  UNL1        0.0395
     14 C         139.5581  145.8459  162.0173 C.ar    1  UNL1        0.0328
     15 C         140.0520  145.1052  163.2247 C.ar    1  UNL1        0.1403
     16 F         139.3419  145.2530  164.5376 F       1  UNL1       -0.2042
     17 O         142.1822  144.6616  159.2857 O.3     1  UNL1       -0.4045
     18 C         141.4910  145.0474  158.0116 C.3     1  UNL1        0.5753
     19 F         140.7997  145.4332  156.7375 F       1  UNL1       -0.1328
     20 F         140.6964  143.7760  158.0577 F       1  UNL1       -0.1328
     21 F         142.2855  146.3188  157.9655 F       1  UNL1       -0.1328
     22 C         141.3166  139.7848  169.5980 C.3     1  UNL1        0.0704
     23 C         140.4347  140.2859  170.7030 C.3     1  UNL1        0.0497
     24 O         139.3551  142.6338  170.9708 O.co2   1  UNL1       -0.5492
     25 C         140.5280  141.7155  171.1473 C.2     1  UNL1        0.0508
     26 O         141.7942  142.2269  171.7681 O.co2   1  UNL1       -0.5492
@<TRIPOS>UNITY_ATOM_ATTR
24 1
charge -1
@<TRIPOS>BOND
     1    24    25   ar
     2    25    26   ar
     3    25    23    1
     4    23    22    1
     5    22     1    1
     6     1     2   ar
     7     2     3   ar
     8     3     4   ar
     9     4     5   ar
    10     5    10    1
    11    10    11   ar
    12    11    12   ar
    13    12    17    1
    14    17    18    1
    15    18    19    1
    16    18    20    1
    17    18    21    1
    18    12    13   ar
    19    13    14   ar
    20    14    15   ar
    21    15    16    1
    22     5     6   ar
    23     6     7   ar
    24     7     8   ar
    25     8     9   ar
    26     9     1   ar
    27     8     3   ar
    28    15    10   ar
@<TRIPOS>MOLECULE
*****
 26 28 0 0 0
SMALL
GASTEIGER

@<TRIPOS>ATOM
      1 C         142.8886  138.5338  169.4882 C.ar    1  UNL1        0.1232
      2 C         141.7841  139.5395  169.3524 C.ar    1  UNL1        0.0360
      3 C         141.6910  139.9337  167.9081 C.ar    1  UNL1        0.0372
      4 C         140.7881  140.8881  167.1843 C.ar    1  UNL1        0.0032
      5 C         140.9323  141.0804  165.7037 C.ar    1  UNL1        0.0025
      6 C         141.9794  140.3183  164.9469 C.ar    1  UNL1        0.0032
      7 C         142.8822  139.3638  165.6706 C.ar    1  UNL1        0.0375
      8 C         142.7380  139.1715  167.1512 C.ar    1  UNL1        0.1448
      9 O         143.4782  138.3064  168.1278 O.2     1  UNL1       -0.4578
     10 C         140.0294  142.0349  164.9799 C.ar    1  UNL1        0.0305
     11 C         140.5982  143.2669  164.3408 C.ar    1  UNL1        0.0394
     12 C         139.6954  144.2214  163.6170 C.ar    1  UNL1        0.1469
     13 C         138.2237  143.9438  163.5323 C.ar    1  UNL1        0.0395
     14 C         137.6549  142.7117  164.1714 C.ar    1  UNL1        0.0328
     15 C         138.5578  141.7573  164.8953 C.ar    1  UNL1        0.1403
     16 F         137.9890  140.5252  165.5344 F       1  UNL1       -0.2042
     17 O         140.2642  145.4534  162.9778 O.3     1  UNL1       -0.4045
     18 C         140.1415  145.6548  161.4965 C.3     1  UNL1        0.5753
     19 F         140.0187  145.8561  160.0151 F       1  UNL1       -0.1328
     20 F         139.4840  146.9823  161.7315 F       1  UNL1       -0.1328
     21 F         140.7989  144.3272  161.2616 F       1  UNL1       -0.1328
     22 C         143.3266  137.8717  170.7609 C.3     1  UNL1        0.0704
     23 C         144.0909  136.5820  170.7109 C.3     1  UNL1        0.0497
     24 O         144.9208  135.3796  172.8592 O.co2   1  UNL1       -0.5492
     25 C         145.1744  136.3129  171.7127 C.2     1  UNL1        0.0508
     26 O         146.5115  136.9772  171.5678 O.co2   1  UNL1       -0.5492
@<TRIPOS>UNITY_ATOM_ATTR
24 1
charge -1
@<TRIPOS>BOND
     1    24    25   ar
     2    25    26   ar
     3    25    23    1
     4    23    22    1
     5    22     1    1
     6     1     2   ar
     7     2     3   ar
     8     3     4   ar
     9     4     5   ar
    10     5    10    1
    11    10    11   ar
    12    11    12   ar
    13    12    17    1
    14    17    18    1
    15    18    19    1
    16    18    20    1
    17    18    21    1
    18    12    13   ar
    19    13    14   ar
    20    14    15   ar
    21    15    16    1
    22     5     6   ar
    23     6     7   ar
    24     7     8   ar
    25     8     9   ar
    26     9     1   ar
    27     8     3   ar
    28    15    10   ar
@<TRIPOS>MOLECULE
*****
 26 28 0 0 0
SMALL
GASTEIGER

@<TRIPOS>ATOM
      1 C         141.7513  140.0821  168.8755 C.ar    1  UNL1        0.1232
      2 C         142.0530  140.6694  167.5287 C.ar    1  UNL1        0.0360
      3 C         140.8380  140.4983  166.6657 C.ar    1  UNL1        0.0372
      4 C         140.5542  140.8840  165.2442 C.ar    1  UNL1        0.0032
      5 C         139.2178  140.5767  164.6363 C.ar    1  UNL1        0.0025
      6 C         138.1653  139.8837  165.4498 C.ar    1  UNL1        0.0032
      7 C         138.4491  139.4980  166.8713 C.ar    1  UNL1        0.0375
      8 C         139.7855  139.8053  167.4792 C.ar    1  UNL1        0.1448
      9 O         140.3499  139.5481  168.8450 O.2     1  UNL1       -0.4578
     10 C         138.9340  140.9625  163.2147 C.ar    1  UNL1        0.0305
     11 C         139.1460  142.3777  162.7650 C.ar    1  UNL1        0.0394
     12 C         138.8622  142.7634  161.3436 C.ar    1  UNL1        0.1469
     13 C         138.3662  141.7340  160.3717 C.ar    1  UNL1        0.0395
     14 C         138.1542  140.3188  160.8215 C.ar    1  UNL1        0.0328
     15 C         138.4380  139.9330  162.2430 C.ar    1  UNL1        0.1403
     16 F         138.2260  138.5178  162.6928 F       1  UNL1       -0.2042
     17 O         139.0742  144.1786  160.8938 O.3     1  UNL1       -0.4045
     18 C         139.9216  145.1068  161.7126 C.3     1  UNL1        0.5753
     19 F         140.7689  146.0350  162.5315 F       1  UNL1       -0.1328
     20 F         141.1495  144.6009  161.0154 F       1  UNL1       -0.1328
     21 F         138.6936  145.6127  162.4098 F       1  UNL1       -0.1328
     22 C         142.6867  140.0368  170.0472 C.3     1  UNL1        0.0704
     23 C         142.3310  140.7483  171.3189 C.3     1  UNL1        0.0497
     24 O         142.3235  143.2420  170.5898 O.co2   1  UNL1       -0.5492
     25 C         141.6509  142.0842  171.2659 C.2     1  UNL1        0.0508
     26 O         140.2980  142.2623  171.8889 O.co2   1  UNL1       -0.5492
@<TRIPOS>UNITY_ATOM_ATTR
24 1
charge -1
@<TRIPOS>BOND
     1    24    25   ar
     2    25    26   ar
     3    25    23    1
     4    23    22    1
     5    22     1    1
     6     1     2   ar
     7     2     3   ar
     8     3     4   ar
     9     4     5   ar
    10     5    10    1
    11    10    11   ar
    12    11    12   ar
    13    12    17    1
    14    17    18    1
    15    18    19    1
    16    18    20    1
    17    18    21    1
    18    12    13   ar
    19    13    14   ar
    20    14    15   ar
    21    15    16    1
    22     5     6   ar
    23     6     7   ar
    24     7     8   ar
    25     8     9   ar
    26     9     1   ar
    27     8     3   ar
    28    15    10   ar
@<TRIPOS>MOLECULE
*****
 26 28 0 0 0
SMALL
GASTEIGER

@<TRIPOS>ATOM
      1 C         140.2898  139.9186  169.2515 C.ar    1  UNL1        0.1232
      2 C         141.5662  139.9181  168.4636 C.ar    1  UNL1        0.0360
      3 C         141.2220  139.6766  167.0237 C.ar    1  UNL1        0.0372
      4 C         142.0722  139.5729  165.7923 C.ar    1  UNL1        0.0032
      5 C         141.4333  139.3205  164.4589 C.ar    1  UNL1        0.0025
      6 C         139.9442  139.1718  164.3569 C.ar    1  UNL1        0.0032
      7 C         139.0940  139.2755  165.5883 C.ar    1  UNL1        0.0375
      8 C         139.7329  139.5279  166.9217 C.ar    1  UNL1        0.1448
      9 O         139.1568  139.6775  168.2985 O.2     1  UNL1       -0.4578
     10 C         142.2835  139.2168  163.2274 C.ar    1  UNL1        0.0305
     11 C         143.2102  140.3373  162.8593 C.ar    1  UNL1        0.0394
     12 C         144.0604  140.2337  161.6279 C.ar    1  UNL1        0.1469
     13 C         143.9838  139.0094  160.7645 C.ar    1  UNL1        0.0395
     14 C         143.0571  137.8888  161.1326 C.ar    1  UNL1        0.0328
     15 C         142.2069  137.9925  162.3641 C.ar    1  UNL1        0.1403
     16 F         141.2802  136.8720  162.7322 F       1  UNL1       -0.2042
     17 O         144.9871  141.3542  161.2598 O.3     1  UNL1       -0.4045
     18 C         144.8681  142.6823  161.9468 C.3     1  UNL1        0.5753
     19 F         144.7492  144.0104  162.6340 F       1  UNL1       -0.1328
     20 F         143.9325  143.1538  160.8734 F       1  UNL1       -0.1328
     21 F         145.8037  142.2108  163.0203 F       1  UNL1       -0.1328
     22 C         140.1678  140.1242  170.7323 C.3     1  UNL1        0.0704
     23 C         140.8862  141.2632  171.3931 C.3     1  UNL1        0.0497
     24 O         139.2672  143.2765  171.1194 O.co2   1  UNL1       -0.5492
     25 C         140.6290  142.6720  170.9469 C.2     1  UNL1        0.0508
     26 O         141.7337  143.4762  170.3281 O.co2   1  UNL1       -0.5492
@<TRIPOS>UNITY_ATOM_ATTR
24 1
charge -1
@<TRIPOS>BOND
     1    24    25   ar
     2    25    26   ar
     3    25    23    1
     4    23    22    1
     5    22     1    1
     6     1     2   ar
     7     2     3   ar
     8     3     4   ar
     9     4     5   ar
    10     5    10    1
    11    10    11   ar
    12    11    12   ar
    13    12    17    1
    14    17    18    1
    15    18    19    1
    16    18    20    1
    17    18    21    1
    18    12    13   ar
    19    13    14   ar
    20    14    15   ar
    21    15    16    1
    22     5     6   ar
    23     6     7   ar
    24     7     8   ar
    25     8     9   ar
    26     9     1   ar
    27     8     3   ar
    28    15    10   ar
@<TRIPOS>MOLECULE
*****
 26 28 0 0 0
SMALL
GASTEIGER

@<TRIPOS>ATOM
      1 C         142.6551  141.7992  169.2900 C.ar    1  UNL1        0.1232
      2 C         142.2969  140.5564  168.5304 C.ar    1  UNL1        0.0360
      3 C         142.6121  140.7908  167.0827 C.ar    1  UNL1        0.0372
      4 C         142.4669  139.9198  165.8702 C.ar    1  UNL1        0.0032
      5 C         142.8749  140.4367  164.5224 C.ar    1  UNL1        0.0025
      6 C         143.4279  141.8245  164.3873 C.ar    1  UNL1        0.0032
      7 C         143.5731  142.6954  165.5999 C.ar    1  UNL1        0.0375
      8 C         143.1651  142.1785  166.9476 C.ar    1  UNL1        0.1448
      9 O         143.1917  142.8017  168.3118 O.2     1  UNL1       -0.4578
     10 C         142.7298  139.5658  163.3098 C.ar    1  UNL1        0.0305
     11 C         141.3799  139.0390  162.9219 C.ar    1  UNL1        0.0394
     12 C         141.2347  138.1682  161.7093 C.ar    1  UNL1        0.1469
     13 C         142.4395  137.8240  160.8845 C.ar    1  UNL1        0.0395
     14 C         143.7893  138.3507  161.2723 C.ar    1  UNL1        0.0328
     15 C         143.9344  139.2216  162.4850 C.ar    1  UNL1        0.1403
     16 F         145.2843  139.7484  162.8729 F       1  UNL1       -0.2042
     17 O         139.8849  137.6414  161.3214 O.3     1  UNL1       -0.4045
     18 C         138.6441  138.3531  161.7727 C.3     1  UNL1        0.5753
     19 F         137.4032  139.0649  162.2240 F       1  UNL1       -0.1328
     20 F         138.4631  137.3436  162.8672 F       1  UNL1       -0.1328
     21 F         138.8250  139.3627  160.6782 F       1  UNL1       -0.1328
     22 C         142.5034  142.0036  170.7682 C.3     1  UNL1        0.0704
     23 C         141.1702  141.7906  171.4219 C.3     1  UNL1        0.0497
     24 O         138.8357  141.4149  170.3454 O.co2   1  UNL1       -0.5492
     25 C         139.9276  142.3429  170.7887 C.2     1  UNL1        0.0508
     26 O         139.7770  143.8232  170.5988 O.co2   1  UNL1       -0.5492
@<TRIPOS>UNITY_ATOM_ATTR
24 1
charge -1
@<TRIPOS>BOND
     1    24    25   ar
     2    25    26   ar
     3    25    23    1
     4    23    22    1
     5    22     1    1
     6     1     2   ar
     7     2     3   ar
     8     3     4   ar
     9     4     5   ar
    10     5    10    1
    11    10    11   ar
    12    11    12   ar
    13    12    17    1
    14    17    18    1
    15    18    19    1
    16    18    20    1
    17    18    21    1
    18    12    13   ar
    19    13    14   ar
    20    14    15   ar
    21    15    16    1
    22     5     6   ar
    23     6     7   ar
    24     7     8   ar
    25     8     9   ar
    26     9     1   ar
    27     8     3   ar
    28    15    10   ar
