@<TRIPOS>MOLECULE
*****
 34 37 0 0 0
SMALL
GASTEIGER

@<TRIPOS>ATOM
      1 C         137.9427  139.6983  161.8455 C.3     1  UNL1        0.2722
      2 N         138.2168  141.9069  160.5050 N.am    1  UNL1       -0.2663
      3 C         138.3766  140.4187  160.6033 C.2     1  UNL1        0.2701
      4 O         138.9702  139.6509  159.4596 O.2     1  UNL1       -0.2707
      5 H         137.8273  142.4108  161.2556 H       1  UNL1        0.1564
      6 C         139.9521  144.7886  155.5366 C.3     1  UNL1        0.0327
      7 C         139.5183  144.0682  156.7787 C.ar    1  UNL1       -0.0026
      8 C         140.2809  144.2517  158.0573 C.ar    1  UNL1        0.0001
      9 C         139.8471  143.5313  159.2994 C.ar    1  UNL1        0.0342
     10 C         138.6507  142.6273  159.2629 C.ar    1  UNL1        0.1342
     11 N         137.8880  142.4438  157.9844 N.ar    1  UNL1       -0.2293
     12 C         138.3218  143.1642  156.7422 C.ar    1  UNL1        0.0960
     13 C         138.0039  138.2007  161.9040 C.3     1  UNL1        0.1950
     14 O         138.6883  137.5223  163.0535 O.3     1  UNL1       -0.3519
     15 C         140.1842  137.5542  163.1604 C.3     1  UNL1        0.1156
     16 C         140.8480  137.2799  164.4773 C.3     1  UNL1        0.0320
     17 C         141.0162  137.8603  161.9505 C.3     1  UNL1        0.0320
     18 O         137.4477  140.4755  163.0290 O.3     1  UNL1       -0.4517
     19 C         138.4263  141.0798  163.9920 C.ar    1  UNL1        0.2312
     20 N         139.1812  142.3199  163.6150 N.ar    1  UNL1       -0.1892
     21 C         140.1598  142.9241  164.5779 C.ar    1  UNL1        0.2029
     22 N         140.3834  142.2882  165.9179 N.ar    1  UNL1       -0.2045
     23 C         139.6286  141.0480  166.2950 C.ar    1  UNL1        0.1732
     24 C         138.6500  140.4438  165.3320 C.ar    1  UNL1        0.1099
     25 C         138.0559  139.2269  165.9772 C.ar    1  UNL1        0.1283
     26 N         138.6673  139.0791  167.3389 N.ar    1  UNL1       -0.1606
     27 N         139.6393  140.2046  167.5353 N.ar    1  UNL1       -0.1936
     28 C         140.4752  140.4445  168.7575 C.ar    1  UNL1        0.1759
     29 N         139.8817  141.1379  169.9478 N.ar    1  UNL1       -0.2242
     30 C         140.7176  141.3778  171.1700 C.ar    1  UNL1        0.1006
     31 C         142.1471  140.9244  171.2018 C.ar    1  UNL1        0.0217
     32 C         142.7405  140.2310  170.0114 C.ar    1  UNL1        0.0161
     33 C         141.9046  139.9911  168.7893 C.ar    1  UNL1        0.0935
     34 CL        142.4982  139.2977  167.5990 Cl      1  UNL1       -0.0790
@<TRIPOS>BOND
     1     6     7    1
     2     7     8   ar
     3     8     9   ar
     4     9    10   ar
     5    10     2    1
     6     2     3   am
     7     3     4    2
     8     3     1    1
     9     1    13    1
    10    13    14    1
    11    14    15    1
    12    15    16    1
    13    15    17    1
    14     1    18    1
    15    18    19    1
    16    19    20   ar
    17    20    21   ar
    18    21    22   ar
    19    22    23   ar
    20    23    24   ar
    21    24    25   ar
    22    25    26   ar
    23    26    27   ar
    24    27    28    1
    25    28    29   ar
    26    29    30   ar
    27    30    31   ar
    28    31    32   ar
    29    32    33   ar
    30    33    34    1
    31    10    11   ar
    32    11    12   ar
    33    12     7   ar
    34    24    19   ar
    35    33    28   ar
    36    27    23   ar
    37     2     5    1
@<TRIPOS>MOLECULE
*****
 34 37 0 0 0
SMALL
GASTEIGER

@<TRIPOS>ATOM
      1 C         142.2470  138.0445  162.6628 C.3     1  UNL1        0.2722
      2 N         142.0139  139.5145  164.7924 N.am    1  UNL1       -0.2663
      3 C         141.8549  138.1917  164.1032 C.2     1  UNL1        0.2701
      4 O         141.3036  137.0162  164.8544 O.2     1  UNL1       -0.2707
      5 H         142.3757  140.2861  164.2993 H       1  UNL1        0.1564
      6 C         140.4454  140.1037  170.5536 C.3     1  UNL1        0.0327
      7 C         140.8375  139.9564  169.1133 C.ar    1  UNL1       -0.0026
      8 C         142.2213  139.5010  168.7555 C.ar    1  UNL1        0.0001
      9 C         142.6134  139.3538  167.3152 C.ar    1  UNL1        0.0342
     10 C         141.6218  139.6618  166.2327 C.ar    1  UNL1        0.1342
     11 N         140.2381  140.1172  166.5904 N.ar    1  UNL1       -0.2293
     12 C         139.8459  140.2645  168.0308 C.ar    1  UNL1        0.0960
     13 C         143.5895  138.5257  162.1981 C.3     1  UNL1        0.1950
     14 O         144.4774  139.2907  163.1343 O.3     1  UNL1       -0.3519
     15 C         144.8564  140.7074  162.8189 C.3     1  UNL1        0.1156
     16 C         145.6944  141.4922  163.7842 C.3     1  UNL1        0.0320
     17 C         144.3974  141.3392  161.5383 C.3     1  UNL1        0.0320
     18 O         141.2966  137.4160  161.6873 O.3     1  UNL1       -0.4517
     19 C         140.0878  138.1736  161.2237 C.ar    1  UNL1        0.2312
     20 N         138.9204  138.3608  162.1468 N.ar    1  UNL1       -0.1892
     21 C         137.7117  139.1184  161.6832 C.ar    1  UNL1        0.2029
     22 N         137.6703  139.6887  160.2965 N.ar    1  UNL1       -0.2045
     23 C         138.8376  139.5015  159.3734 C.ar    1  UNL1        0.1732
     24 C         140.0464  138.7439  159.8370 C.ar    1  UNL1        0.1099
     25 C         141.0382  138.7201  158.7119 C.ar    1  UNL1        0.1283
     26 N         140.4424  139.4630  157.5530 N.ar    1  UNL1       -0.1606
     27 N         139.0824  139.9459  157.9618 N.ar    1  UNL1       -0.1936
     28 C         138.1336  140.7348  157.1088 C.ar    1  UNL1        0.1759
     29 N         137.2210  140.0278  156.1511 N.ar    1  UNL1       -0.2242
     30 C         136.2722  140.8166  155.2981 C.ar    1  UNL1        0.1006
     31 C         136.2361  142.3125  155.4028 C.ar    1  UNL1        0.0217
     32 C         137.1488  143.0195  156.3605 C.ar    1  UNL1        0.0161
     33 C         138.0975  142.2307  157.2135 C.ar    1  UNL1        0.0935
     34 CL        139.0102  142.9378  158.1711 Cl      1  UNL1       -0.0790
@<TRIPOS>BOND
     1     6     7    1
     2     7     8   ar
     3     8     9   ar
     4     9    10   ar
     5    10     2    1
     6     2     3   am
     7     3     4    2
     8     3     1    1
     9     1    13    1
    10    13    14    1
    11    14    15    1
    12    15    16    1
    13    15    17    1
    14     1    18    1
    15    18    19    1
    16    19    20   ar
    17    20    21   ar
    18    21    22   ar
    19    22    23   ar
    20    23    24   ar
    21    24    25   ar
    22    25    26   ar
    23    26    27   ar
    24    27    28    1
    25    28    29   ar
    26    29    30   ar
    27    30    31   ar
    28    31    32   ar
    29    32    33   ar
    30    33    34    1
    31    10    11   ar
    32    11    12   ar
    33    12     7   ar
    34    24    19   ar
    35    33    28   ar
    36    27    23   ar
    37     2     5    1
@<TRIPOS>MOLECULE
*****
 34 37 0 0 0
SMALL
GASTEIGER

@<TRIPOS>ATOM
      1 C         141.2850  144.3572  161.6892 C.3     1  UNL1        0.2722
      2 N         141.8232  145.4034  159.3727 N.am    1  UNL1       -0.2663
      3 C         140.9121  144.6054  160.2576 C.2     1  UNL1        0.2701
      4 O         139.6280  144.0556  159.7109 O.2     1  UNL1       -0.2707
      5 H         142.6660  145.7643  159.7316 H       1  UNL1        0.1564
      6 C         140.3316  146.3964  153.6466 C.3     1  UNL1        0.0327
      7 C         140.7045  146.1482  155.0781 C.ar    1  UNL1       -0.0026
      8 C         141.9375  145.3593  155.4061 C.ar    1  UNL1        0.0001
      9 C         142.3104  145.1111  156.8376 C.ar    1  UNL1        0.0342
     10 C         141.4503  145.6517  157.9412 C.ar    1  UNL1        0.1342
     11 N         140.2174  146.4405  157.6134 N.ar    1  UNL1       -0.2293
     12 C         139.8444  146.6888  156.1818 C.ar    1  UNL1        0.0960
     13 C         140.6588  145.1746  162.7799 C.3     1  UNL1        0.1950
     14 O         139.1703  145.3553  162.8213 O.3     1  UNL1       -0.3519
     15 C         138.3001  144.2802  163.4019 C.3     1  UNL1        0.1156
     16 C         137.9601  144.2978  164.8627 C.3     1  UNL1        0.0320
     17 C         137.7700  143.1875  162.5216 C.3     1  UNL1        0.0320
     18 O         142.2842  143.2915  162.0299 O.3     1  UNL1       -0.4517
     19 C         142.7528  143.1279  163.4455 C.ar    1  UNL1        0.2312
     20 N         144.0309  143.7738  163.8918 N.ar    1  UNL1       -0.1892
     21 C         144.4994  143.6101  165.3073 C.ar    1  UNL1        0.2029
     22 N         143.6899  142.8005  166.2764 N.ar    1  UNL1       -0.2045
     23 C         142.4118  142.1546  165.8301 C.ar    1  UNL1        0.1732
     24 C         141.9432  142.3183  164.4146 C.ar    1  UNL1        0.1099
     25 C         140.6521  141.5697  164.2642 C.ar    1  UNL1        0.1283
     26 N         140.3227  140.9433  165.5868 N.ar    1  UNL1       -0.1606
     27 N         141.4103  141.3049  166.5545 N.ar    1  UNL1       -0.1936
     28 C         141.4835  140.8895  167.9940 C.ar    1  UNL1        0.1759
     29 N         140.7414  141.6696  169.0384 N.ar    1  UNL1       -0.2242
     30 C         140.8146  141.2543  170.4779 C.ar    1  UNL1        0.1006
     31 C         141.6299  140.0588  170.8730 C.ar    1  UNL1        0.0217
     32 C         142.3719  139.2787  169.8287 C.ar    1  UNL1        0.0161
     33 C         142.2987  139.6940  168.3892 C.ar    1  UNL1        0.0935
     34 CL        143.0408  138.9139  167.3449 Cl      1  UNL1       -0.0790
@<TRIPOS>BOND
     1     6     7    1
     2     7     8   ar
     3     8     9   ar
     4     9    10   ar
     5    10     2    1
     6     2     3   am
     7     3     4    2
     8     3     1    1
     9     1    13    1
    10    13    14    1
    11    14    15    1
    12    15    16    1
    13    15    17    1
    14     1    18    1
    15    18    19    1
    16    19    20   ar
    17    20    21   ar
    18    21    22   ar
    19    22    23   ar
    20    23    24   ar
    21    24    25   ar
    22    25    26   ar
    23    26    27   ar
    24    27    28    1
    25    28    29   ar
    26    29    30   ar
    27    30    31   ar
    28    31    32   ar
    29    32    33   ar
    30    33    34    1
    31    10    11   ar
    32    11    12   ar
    33    12     7   ar
    34    24    19   ar
    35    33    28   ar
    36    27    23   ar
    37     2     5    1
@<TRIPOS>MOLECULE
*****
 34 37 0 0 0
SMALL
GASTEIGER

@<TRIPOS>ATOM
      1 C         139.1162  138.5139  163.6730 C.3     1  UNL1        0.2722
      2 N         140.0645  139.2736  165.9695 N.am    1  UNL1       -0.2663
      3 C         139.0626  139.4250  164.8634 C.2     1  UNL1        0.2701
      4 O         138.0072  140.4875  164.9478 O.2     1  UNL1       -0.2707
      5 H         140.7572  138.5762  165.9141 H       1  UNL1        0.1564
      6 C         139.8502  142.9177  170.7312 C.3     1  UNL1        0.0327
      7 C         139.9037  142.0067  169.5408 C.ar    1  UNL1       -0.0026
      8 C         140.5536  142.4697  168.2706 C.ar    1  UNL1        0.0001
      9 C         140.6071  141.5587  167.0802 C.ar    1  UNL1        0.0342
     10 C         140.0109  140.1846  167.1599 C.ar    1  UNL1        0.1342
     11 N         139.3611  139.7215  168.4300 N.ar    1  UNL1       -0.2293
     12 C         139.3075  140.6326  169.6205 C.ar    1  UNL1        0.0960
     13 C         140.0691  137.3556  163.6573 C.3     1  UNL1        0.1950
     14 O         141.4513  137.5139  164.2181 O.3     1  UNL1       -0.3519
     15 C         142.4990  138.2480  163.4347 C.3     1  UNL1        0.1156
     16 C         143.4301  139.1954  164.1315 C.3     1  UNL1        0.0320
     17 C         142.6155  138.0347  161.9545 C.3     1  UNL1        0.0320
     18 O         138.2169  138.7612  162.4982 O.3     1  UNL1       -0.4517
     19 C         138.7868  139.2911  161.2158 C.ar    1  UNL1        0.2312
     20 N         139.4297  138.3539  160.2369 N.ar    1  UNL1       -0.1892
     21 C         139.9996  138.8839  158.9546 C.ar    1  UNL1        0.2029
     22 N         139.9266  140.3511  158.6512 N.ar    1  UNL1       -0.2045
     23 C         139.2837  141.2883  159.6301 C.ar    1  UNL1        0.1732
     24 C         138.7138  140.7583  160.9124 C.ar    1  UNL1        0.1099
     25 C         138.1445  141.9148  161.6796 C.ar    1  UNL1        0.1283
     26 N         138.3626  143.1595  160.8715 N.ar    1  UNL1       -0.1606
     27 N         139.0666  142.7723  159.6048 N.ar    1  UNL1       -0.1936
     28 C         139.4809  143.7052  158.5057 C.ar    1  UNL1        0.1759
     29 N         138.9123  143.5401  157.1276 N.ar    1  UNL1       -0.2242
     30 C         139.3265  144.4731  156.0285 C.ar    1  UNL1        0.1006
     31 C         140.3095  145.5713  156.3076 C.ar    1  UNL1        0.0217
     32 C         140.8781  145.7364  157.6858 C.ar    1  UNL1        0.0161
     33 C         140.4638  144.8034  158.7848 C.ar    1  UNL1        0.0935
     34 CL        141.0325  144.9686  160.1630 Cl      1  UNL1       -0.0790
@<TRIPOS>BOND
     1     6     7    1
     2     7     8   ar
     3     8     9   ar
     4     9    10   ar
     5    10     2    1
     6     2     3   am
     7     3     4    2
     8     3     1    1
     9     1    13    1
    10    13    14    1
    11    14    15    1
    12    15    16    1
    13    15    17    1
    14     1    18    1
    15    18    19    1
    16    19    20   ar
    17    20    21   ar
    18    21    22   ar
    19    22    23   ar
    20    23    24   ar
    21    24    25   ar
    22    25    26   ar
    23    26    27   ar
    24    27    28    1
    25    28    29   ar
    26    29    30   ar
    27    30    31   ar
    28    31    32   ar
    29    32    33   ar
    30    33    34    1
    31    10    11   ar
    32    11    12   ar
    33    12     7   ar
    34    24    19   ar
    35    33    28   ar
    36    27    23   ar
    37     2     5    1
@<TRIPOS>MOLECULE
*****
 34 37 0 0 0
SMALL
GASTEIGER

@<TRIPOS>ATOM
      1 C         144.0474  140.2134  161.1879 C.3     1  UNL1        0.2722
      2 N         142.1865  141.9323  160.6111 N.am    1  UNL1       -0.2663
      3 C         143.4968  141.2784  160.2863 C.2     1  UNL1        0.2701
      4 O         144.2564  141.6894  159.0600 O.2     1  UNL1       -0.2707
      5 H         141.6879  141.6625  161.4160 H       1  UNL1        0.1564
      6 C         139.9840  146.1921  157.0052 C.3     1  UNL1        0.0327
      7 C         140.5346  145.1272  157.9067 C.ar    1  UNL1       -0.0026
      8 C         140.0608  143.7104  157.7705 C.ar    1  UNL1        0.0001
      9 C         140.6114  142.6455  158.6720 C.ar    1  UNL1        0.0342
     10 C         141.6359  142.9972  159.7097 C.ar    1  UNL1        0.1342
     11 N         142.1097  144.4138  159.8459 N.ar    1  UNL1       -0.2293
     12 C         141.5591  145.4788  158.9444 C.ar    1  UNL1        0.0960
     13 C         143.8230  138.7662  160.8633 C.3     1  UNL1        0.1950
     14 O         143.2149  137.8536  161.8867 O.3     1  UNL1       -0.3519
     15 C         141.7249  137.7978  162.0509 C.3     1  UNL1        0.1156
     16 C         140.8313  138.3560  160.9833 C.3     1  UNL1        0.0320
     17 C         141.1287  137.1838  163.2828 C.3     1  UNL1        0.0320
     18 O         144.8223  140.5956  162.4140 O.3     1  UNL1       -0.4517
     19 C         144.1189  141.2245  163.5801 C.ar    1  UNL1        0.2312
     20 N         143.7785  142.6851  163.5519 N.ar    1  UNL1       -0.1892
     21 C         143.0751  143.3138  164.7180 C.ar    1  UNL1        0.2029
     22 N         142.7120  142.4820  165.9122 N.ar    1  UNL1       -0.2045
     23 C         143.0523  141.0215  165.9404 C.ar    1  UNL1        0.1732
     24 C         143.7557  140.3927  164.7743 C.ar    1  UNL1        0.1099
     25 C         143.9606  138.9396  165.0852 C.ar    1  UNL1        0.1283
     26 N         143.3838  138.6703  166.4434 N.ar    1  UNL1       -0.1606
     27 N         142.8224  139.9570  166.9719 N.ar    1  UNL1       -0.1936
     28 C         142.1494  140.1460  168.2990 C.ar    1  UNL1        0.1759
     29 N         142.9721  140.3893  169.5294 N.ar    1  UNL1       -0.2242
     30 C         142.2990  140.5784  170.8565 C.ar    1  UNL1        0.1006
     31 C         140.8031  140.5241  170.9533 C.ar    1  UNL1        0.0217
     32 C         139.9804  140.2809  169.7229 C.ar    1  UNL1        0.0161
     33 C         140.6535  140.0918  168.3958 C.ar    1  UNL1        0.0935
     34 CL        139.8306  139.8485  167.1655 Cl      1  UNL1       -0.0790
@<TRIPOS>BOND
     1     6     7    1
     2     7     8   ar
     3     8     9   ar
     4     9    10   ar
     5    10     2    1
     6     2     3   am
     7     3     4    2
     8     3     1    1
     9     1    13    1
    10    13    14    1
    11    14    15    1
    12    15    16    1
    13    15    17    1
    14     1    18    1
    15    18    19    1
    16    19    20   ar
    17    20    21   ar
    18    21    22   ar
    19    22    23   ar
    20    23    24   ar
    21    24    25   ar
    22    25    26   ar
    23    26    27   ar
    24    27    28    1
    25    28    29   ar
    26    29    30   ar
    27    30    31   ar
    28    31    32   ar
    29    32    33   ar
    30    33    34    1
    31    10    11   ar
    32    11    12   ar
    33    12     7   ar
    34    24    19   ar
    35    33    28   ar
    36    27    23   ar
    37     2     5    1
@<TRIPOS>MOLECULE
*****
 34 37 0 0 0
SMALL
GASTEIGER

@<TRIPOS>ATOM
      1 C         142.4066  139.6726  166.5459 C.3     1  UNL1        0.2722
      2 N         140.8333  141.1485  165.0979 N.am    1  UNL1       -0.2663
      3 C         142.1515  140.9382  165.7822 C.2     1  UNL1        0.2701
      4 O         143.2145  141.9935  165.7027 O.2     1  UNL1       -0.2707
      5 H         140.1356  140.4558  165.1501 H       1  UNL1        0.1564
      6 C         139.8126  146.2106  162.0429 C.3     1  UNL1        0.0327
      7 C         140.0678  144.9451  162.8067 C.ar    1  UNL1       -0.0026
      8 C         139.6040  144.8202  164.2277 C.ar    1  UNL1        0.0001
      9 C         139.8591  143.5546  164.9915 C.ar    1  UNL1        0.0342
     10 C         140.5781  142.4140  164.3342 C.ar    1  UNL1        0.1342
     11 N         141.0419  142.5389  162.9132 N.ar    1  UNL1       -0.2293
     12 C         140.7868  143.8044  162.1494 C.ar    1  UNL1        0.0960
     13 C         142.4862  139.7035  168.0435 C.3     1  UNL1        0.1950
     14 O         141.5316  140.5539  168.8279 O.3     1  UNL1       -0.3519
     15 C         141.8534  141.9953  169.0911 C.3     1  UNL1        0.1156
     16 C         140.7746  143.0334  168.9991 C.3     1  UNL1        0.0320
     17 C         143.2538  142.3983  169.4461 C.3     1  UNL1        0.0320
     18 O         142.5821  138.3763  165.8121 O.3     1  UNL1       -0.4517
     19 C         141.8631  138.1448  164.5161 C.ar    1  UNL1        0.2312
     20 N         140.4373  137.6790  164.5222 N.ar    1  UNL1       -0.1892
     21 C         139.7184  137.4475  163.2262 C.ar    1  UNL1        0.2029
     22 N         140.4253  137.6819  161.9241 N.ar    1  UNL1       -0.2045
     23 C         141.8511  138.1476  161.9180 C.ar    1  UNL1        0.1732
     24 C         142.5700  138.3791  163.2140 C.ar    1  UNL1        0.1099
     25 C         143.9633  138.8351  162.8962 C.ar    1  UNL1        0.1283
     26 N         144.1054  138.8854  161.4038 N.ar    1  UNL1       -0.1606
     27 N         142.8000  138.4606  160.7993 N.ar    1  UNL1       -0.1936
     28 C         142.4968  138.3653  159.3334 C.ar    1  UNL1        0.1759
     29 N         142.9940  137.1941  158.5391 N.ar    1  UNL1       -0.2242
     30 C         142.6908  137.0989  157.0732 C.ar    1  UNL1        0.1006
     31 C         141.8902  138.1749  156.4014 C.ar    1  UNL1        0.0217
     32 C         141.3929  139.3462  157.1957 C.ar    1  UNL1        0.0161
     33 C         141.6962  139.4414  158.6616 C.ar    1  UNL1        0.0935
     34 CL        141.1989  140.6127  159.4558 Cl      1  UNL1       -0.0790
@<TRIPOS>BOND
     1     6     7    1
     2     7     8   ar
     3     8     9   ar
     4     9    10   ar
     5    10     2    1
     6     2     3   am
     7     3     4    2
     8     3     1    1
     9     1    13    1
    10    13    14    1
    11    14    15    1
    12    15    16    1
    13    15    17    1
    14     1    18    1
    15    18    19    1
    16    19    20   ar
    17    20    21   ar
    18    21    22   ar
    19    22    23   ar
    20    23    24   ar
    21    24    25   ar
    22    25    26   ar
    23    26    27   ar
    24    27    28    1
    25    28    29   ar
    26    29    30   ar
    27    30    31   ar
    28    31    32   ar
    29    32    33   ar
    30    33    34    1
    31    10    11   ar
    32    11    12   ar
    33    12     7   ar
    34    24    19   ar
    35    33    28   ar
    36    27    23   ar
    37     2     5    1
@<TRIPOS>MOLECULE
*****
 34 37 0 0 0
SMALL
GASTEIGER

@<TRIPOS>ATOM
      1 C         139.1521  138.3325  161.4968 C.3     1  UNL1        0.2722
      2 N         141.3932  138.3950  160.1838 N.am    1  UNL1       -0.2663
      3 C         139.8972  138.5022  160.2059 C.2     1  UNL1        0.2701
      4 O         139.1462  138.7792  158.9374 O.2     1  UNL1       -0.2707
      5 H         141.8860  138.2132  161.0164 H       1  UNL1        0.1564
      6 C         144.3734  139.0739  155.0208 C.3     1  UNL1        0.0327
      7 C         143.6284  138.9041  156.3115 C.ar    1  UNL1       -0.0026
      8 C         143.5244  140.0501  157.2738 C.ar    1  UNL1        0.0001
      9 C         142.7793  139.8804  158.5645 C.ar    1  UNL1        0.0342
     10 C         142.1382  138.5647  158.8930 C.ar    1  UNL1        0.1342
     11 N         142.2421  137.4187  157.9308 N.ar    1  UNL1       -0.2293
     12 C         142.9872  137.5884  156.6400 C.ar    1  UNL1        0.0960
     13 C         137.7678  138.8912  161.6428 C.3     1  UNL1        0.1950
     14 O         137.4620  139.8583  162.7479 O.3     1  UNL1       -0.3519
     15 C         137.8585  141.2988  162.6150 C.3     1  UNL1        0.1156
     16 C         137.8904  142.1828  163.8265 C.3     1  UNL1        0.0320
     17 C         138.2231  141.8554  161.2707 C.3     1  UNL1        0.0320
     18 O         139.7915  137.6039  162.6415 O.3     1  UNL1       -0.4517
     19 C         140.5739  138.3642  163.6711 C.ar    1  UNL1        0.2312
     20 N         142.0067  138.7231  163.4100 N.ar    1  UNL1       -0.1892
     21 C         142.7890  139.4833  164.4395 C.ar    1  UNL1        0.2029
     22 N         142.1385  139.8846  165.7302 N.ar    1  UNL1       -0.2045
     23 C         140.7057  139.5257  165.9913 C.ar    1  UNL1        0.1732
     24 C         139.9234  138.7655  164.9618 C.ar    1  UNL1        0.1099
     25 C         138.5376  138.5538  165.4957 C.ar    1  UNL1        0.1283
     26 N         138.4636  139.1832  166.8552 N.ar    1  UNL1       -0.1606
     27 N         139.8035  139.7839  167.1615 N.ar    1  UNL1       -0.1936
     28 C         140.1759  140.5145  168.4175 C.ar    1  UNL1        0.1759
     29 N         140.2722  139.7714  169.7169 N.ar    1  UNL1       -0.2242
     30 C         140.6446  140.5020  170.9730 C.ar    1  UNL1        0.1006
     31 C         140.9206  141.9757  170.9296 C.ar    1  UNL1        0.0217
     32 C         140.8243  142.7188  169.6302 C.ar    1  UNL1        0.0161
     33 C         140.4519  141.9882  168.3742 C.ar    1  UNL1        0.0935
     34 CL        140.3556  142.7314  167.0748 Cl      1  UNL1       -0.0790
@<TRIPOS>BOND
     1     6     7    1
     2     7     8   ar
     3     8     9   ar
     4     9    10   ar
     5    10     2    1
     6     2     3   am
     7     3     4    2
     8     3     1    1
     9     1    13    1
    10    13    14    1
    11    14    15    1
    12    15    16    1
    13    15    17    1
    14     1    18    1
    15    18    19    1
    16    19    20   ar
    17    20    21   ar
    18    21    22   ar
    19    22    23   ar
    20    23    24   ar
    21    24    25   ar
    22    25    26   ar
    23    26    27   ar
    24    27    28    1
    25    28    29   ar
    26    29    30   ar
    27    30    31   ar
    28    31    32   ar
    29    32    33   ar
    30    33    34    1
    31    10    11   ar
    32    11    12   ar
    33    12     7   ar
    34    24    19   ar
    35    33    28   ar
    36    27    23   ar
    37     2     5    1
@<TRIPOS>MOLECULE
*****
 34 37 0 0 0
SMALL
GASTEIGER

@<TRIPOS>ATOM
      1 C         139.1012  138.6691  163.7784 C.3     1  UNL1        0.2722
      2 N         139.0106  140.1480  165.9126 N.am    1  UNL1       -0.2663
      3 C         139.7256  139.1451  165.0566 C.2     1  UNL1        0.2701
      4 O         141.0651  138.6181  165.4786 O.2     1  UNL1       -0.2707
      5 H         138.1314  140.4939  165.6356 H       1  UNL1        0.1564
      6 C         141.5082  142.0518  171.0250 C.3     1  UNL1        0.0327
      7 C         140.8838  141.5759  169.7470 C.ar    1  UNL1       -0.0026
      8 C         141.0205  142.3922  168.4959 C.ar    1  UNL1        0.0001
      9 C         140.3962  141.9162  167.2178 C.ar    1  UNL1        0.0342
     10 C         139.6350  140.6240  167.1907 C.ar    1  UNL1        0.1342
     11 N         139.4982  139.8077  168.4417 N.ar    1  UNL1       -0.2293
     12 C         140.1226  140.2837  169.7198 C.ar    1  UNL1        0.0960
     13 C         139.7035  137.5147  163.0338 C.3     1  UNL1        0.1950
     14 O         140.4215  137.7505  161.7381 O.3     1  UNL1       -0.3519
     15 C         141.6492  138.6118  161.7069 C.3     1  UNL1        0.1156
     16 C         142.8616  138.2184  162.4976 C.3     1  UNL1        0.0320
     17 C         141.6645  139.8665  160.8850 C.3     1  UNL1        0.0320
     18 O         137.8744  139.3476  163.2449 O.3     1  UNL1       -0.4517
     19 C         137.9976  140.6463  162.5044 C.ar    1  UNL1        0.2312
     20 N         138.0493  141.9398  163.2621 N.ar    1  UNL1       -0.1892
     21 C         138.1726  143.2383  162.5215 C.ar    1  UNL1        0.2029
     22 N         138.2442  143.2434  161.0232 N.ar    1  UNL1       -0.2045
     23 C         138.1925  141.9499  160.2655 C.ar    1  UNL1        0.1732
     24 C         138.0692  140.6514  161.0061 C.ar    1  UNL1        0.1099
     25 C         138.0420  139.5425  159.9962 C.ar    1  UNL1        0.1283
     26 N         138.1485  140.1559  158.6315 N.ar    1  UNL1       -0.1606
     27 N         138.2415  141.6437  158.7979 N.ar    1  UNL1       -0.1936
     28 C         138.3622  142.6489  157.6911 C.ar    1  UNL1        0.1759
     29 N         137.2160  142.8683  156.7488 N.ar    1  UNL1       -0.2242
     30 C         137.3368  143.8735  155.6420 C.ar    1  UNL1        0.1006
     31 C         138.6038  144.6593  155.4775 C.ar    1  UNL1        0.0217
     32 C         139.7501  144.4399  156.4198 C.ar    1  UNL1        0.0161
     33 C         139.6293  143.4347  157.5266 C.ar    1  UNL1        0.0935
     34 CL        140.7756  143.2153  158.4689 Cl      1  UNL1       -0.0790
@<TRIPOS>BOND
     1     6     7    1
     2     7     8   ar
     3     8     9   ar
     4     9    10   ar
     5    10     2    1
     6     2     3   am
     7     3     4    2
     8     3     1    1
     9     1    13    1
    10    13    14    1
    11    14    15    1
    12    15    16    1
    13    15    17    1
    14     1    18    1
    15    18    19    1
    16    19    20   ar
    17    20    21   ar
    18    21    22   ar
    19    22    23   ar
    20    23    24   ar
    21    24    25   ar
    22    25    26   ar
    23    26    27   ar
    24    27    28    1
    25    28    29   ar
    26    29    30   ar
    27    30    31   ar
    28    31    32   ar
    29    32    33   ar
    30    33    34    1
    31    10    11   ar
    32    11    12   ar
    33    12     7   ar
    34    24    19   ar
    35    33    28   ar
    36    27    23   ar
    37     2     5    1
@<TRIPOS>MOLECULE
*****
 34 37 0 0 0
SMALL
GASTEIGER

@<TRIPOS>ATOM
      1 C         141.5955  139.0971  158.7531 C.3     1  UNL1        0.2722
      2 N         142.8909  137.1890  157.5569 N.am    1  UNL1       -0.2663
      3 C         141.6026  137.8985  157.8512 C.2     1  UNL1        0.2701
      4 O         140.3213  137.4094  157.2438 O.2     1  UNL1       -0.2707
      5 H         143.7319  137.5100  157.9555 H       1  UNL1        0.1564
      6 C         142.9193  132.3946  153.9495 C.3     1  UNL1        0.0327
      7 C         142.9122  133.5932  154.8513 C.ar    1  UNL1       -0.0026
      8 C         143.1677  133.4281  156.3202 C.ar    1  UNL1        0.0001
      9 C         143.1606  134.6267  157.2220 C.ar    1  UNL1        0.0342
     10 C         142.8980  135.9904  156.6550 C.ar    1  UNL1        0.1342
     11 N         142.6426  136.1555  155.1862 N.ar    1  UNL1       -0.2293
     12 C         142.6497  134.9568  154.2843 C.ar    1  UNL1        0.0960
     13 C         142.7788  140.0184  158.7853 C.3     1  UNL1        0.1950
     14 O         144.0734  139.5558  159.3852 O.3     1  UNL1       -0.3519
     15 C         144.1458  139.2202  160.8454 C.3     1  UNL1        0.1156
     16 C         143.9100  137.8115  161.3038 C.3     1  UNL1        0.0320
     17 C         144.4541  140.2932  161.8472 C.3     1  UNL1        0.0320
     18 O         140.4052  139.3744  159.6227 O.3     1  UNL1       -0.4517
     19 C         140.4971  139.1731  161.1064 C.ar    1  UNL1        0.2312
     20 N         140.2680  137.8123  161.6943 N.ar    1  UNL1       -0.1892
     21 C         140.3599  137.6112  163.1778 C.ar    1  UNL1        0.2029
     22 N         140.6809  138.7708  164.0735 N.ar    1  UNL1       -0.2045
     23 C         140.9100  140.1316  163.4856 C.ar    1  UNL1        0.1732
     24 C         140.8181  140.3328  162.0020 C.ar    1  UNL1        0.1099
     25 C         141.0918  141.7790  161.7125 C.ar    1  UNL1        0.1283
     26 N         141.3528  142.4715  163.0171 N.ar    1  UNL1       -0.1606
     27 N         141.2405  141.4534  164.1130 N.ar    1  UNL1       -0.1936
     28 C         141.4260  141.7117  165.5789 C.ar    1  UNL1        0.1759
     29 N         140.2405  141.7041  166.4978 N.ar    1  UNL1       -0.2242
     30 C         140.4261  141.9624  167.9636 C.ar    1  UNL1        0.1006
     31 C         141.7972  142.2283  168.5107 C.ar    1  UNL1        0.0217
     32 C         142.9827  142.2359  167.5918 C.ar    1  UNL1        0.0161
     33 C         142.7972  141.9776  166.1259 C.ar    1  UNL1        0.0935
     34 CL        143.9828  141.9852  165.2071 Cl      1  UNL1       -0.0790
@<TRIPOS>BOND
     1     6     7    1
     2     7     8   ar
     3     8     9   ar
     4     9    10   ar
     5    10     2    1
     6     2     3   am
     7     3     4    2
     8     3     1    1
     9     1    13    1
    10    13    14    1
    11    14    15    1
    12    15    16    1
    13    15    17    1
    14     1    18    1
    15    18    19    1
    16    19    20   ar
    17    20    21   ar
    18    21    22   ar
    19    22    23   ar
    20    23    24   ar
    21    24    25   ar
    22    25    26   ar
    23    26    27   ar
    24    27    28    1
    25    28    29   ar
    26    29    30   ar
    27    30    31   ar
    28    31    32   ar
    29    32    33   ar
    30    33    34    1
    31    10    11   ar
    32    11    12   ar
    33    12     7   ar
    34    24    19   ar
    35    33    28   ar
    36    27    23   ar
    37     2     5    1
