@<TRIPOS>MOLECULE
*****
 35 39 0 0 0
SMALL
GASTEIGER

@<TRIPOS>ATOM
      1 C         138.3269  139.0485  165.6481 C.ar    1  UNL1        0.0536
      2 C         137.9092  140.2629  164.8730 C.ar    1  UNL1        0.0042
      3 C         137.9564  140.2486  163.3737 C.ar    1  UNL1       -0.0041
      4 C         138.4212  139.0200  162.6497 C.ar    1  UNL1       -0.0208
      5 C         138.8389  137.8056  163.4248 C.ar    1  UNL1       -0.0041
      6 C         138.7917  137.8198  164.9240 C.ar    1  UNL1        0.0042
      7 O         137.2482  138.2508  167.8730 O.2     1  UNL1       -0.2699
      8 C         138.2797  139.0628  167.1473 C.2     1  UNL1        0.2490
      9 N         139.2641  139.8891  167.9208 N.am    1  UNL1       -0.2761
     10 C         139.2170  139.9034  169.4200 C.3     1  UNL1        0.0943
     11 C         140.2013  140.7296  170.1934 C.3     1  UNL1        0.0322
     12 C         141.2328  141.5416  169.4677 C.3     1  UNL1        0.0965
     13 C         142.3153  142.3999  168.8831 C.3     1  UNL1        0.0581
     14 C         143.0591  143.0435  170.0158 C.3     1  UNL1        0.2090
     15 O         142.4363  142.5829  171.3003 O.3     1  UNL1       -0.4485
     16 C         141.3077  141.6547  170.9616 C.2     1  UNL1        0.3161
     17 O         140.4112  140.9613  171.9442 O.2     1  UNL1       -0.2501
     18 C         141.2800  141.5274  167.9685 C.3     1  UNL1        0.0322
     19 C         140.2956  140.7011  167.1951 C.3     1  UNL1        0.0943
     20 C         138.4683  139.0057  161.1505 C.3     1  UNL1        0.0420
     21 C         139.7899  139.0317  160.4414 C.3     1  UNL1        0.0585
     22 C         140.0519  138.5450  159.0469 C.3     1  UNL1        0.0175
     23 C         141.5055  138.7615  158.7460 C.3     1  UNL1        0.0199
     24 C         142.1417  139.3819  159.9544 C.3     1  UNL1        0.0855
     25 N         141.0814  139.5489  161.0022 N.3     1  UNL1       -0.2971
     26 H         140.9842  140.5355  161.2421 H       1  UNL1        0.1233
     27 C         143.5847  139.7675  160.0910 C.3     1  UNL1        0.1470
     28 O         144.4680  139.8086  158.8794 O.3     1  UNL1       -0.3787
     29 H         145.3635  140.0745  159.1409 H       1  UNL1        0.2108
     30 C         144.1446  140.1122  161.4393 C.ar    1  UNL1        0.0055
     31 C         144.6729  141.4913  161.7018 C.ar    1  UNL1       -0.0019
     32 C         145.2327  141.8359  163.0501 C.ar    1  UNL1       -0.0002
     33 C         145.2642  140.8015  164.1359 C.ar    1  UNL1       -0.0000
     34 C         144.7358  139.4224  163.8733 C.ar    1  UNL1       -0.0002
     35 C         144.1760  139.0777  162.5251 C.ar    1  UNL1       -0.0019
@<TRIPOS>BOND
     1     7     8    2
     2     8     1    1
     3     1     2   ar
     4     2     3   ar
     5     3     4   ar
     6     4    20    1
     7    21    20    1
     8    21    22    1
     9    22    23    1
    10    24    23    1
    11    24    27    1
    12    27    28    1
    13    27    30    1
    14    30    31   ar
    15    31    32   ar
    16    32    33   ar
    17    33    34   ar
    18    34    35   ar
    19    24    25    1
    20     4     5   ar
    21     5     6   ar
    22     8     9   am
    23     9    10    1
    24    10    11    1
    25    11    12    1
    26    12    13    1
    27    13    14    1
    28    14    15    1
    29    15    16    1
    30    16    17    2
    31    12    18    1
    32    18    19    1
    33     6     1   ar
    34    19     9    1
    35    25    21    1
    36    16    12    1
    37    35    30   ar
    38    28    29    1
    39    25    26    1
@<TRIPOS>MOLECULE
*****
 35 39 0 0 0
SMALL
GASTEIGER

@<TRIPOS>ATOM
      1 C         138.4776  138.9875  165.5609 C.ar    1  UNL1        0.0536
      2 C         138.0807  140.1569  164.7094 C.ar    1  UNL1        0.0042
      3 C         138.1992  140.0721  163.2165 C.ar    1  UNL1       -0.0041
      4 C         138.7146  138.8180  162.5750 C.ar    1  UNL1       -0.0208
      5 C         139.1115  137.6486  163.4265 C.ar    1  UNL1       -0.0041
      6 C         138.9930  137.7333  164.9194 C.ar    1  UNL1        0.0042
      7 O         137.2580  138.3396  167.7615 O.2     1  UNL1       -0.2699
      8 C         138.3591  139.0722  167.0537 C.2     1  UNL1        0.2490
      9 N         139.3416  139.8896  167.8390 N.am    1  UNL1       -0.2761
     10 C         139.2231  139.9743  169.3318 C.3     1  UNL1        0.0943
     11 C         140.2057  140.7917  170.1170 C.3     1  UNL1        0.0322
     12 C         141.3067  141.5243  169.4092 C.3     1  UNL1        0.0965
     13 C         142.4539  142.3074  168.8428 C.3     1  UNL1        0.0581
     14 C         143.1708  142.9692  169.9822 C.3     1  UNL1        0.2090
     15 O         142.4667  142.5951  171.2528 O.3     1  UNL1       -0.4485
     16 C         141.3146  141.7022  170.8987 C.2     1  UNL1        0.3161
     17 O         140.3414  141.0938  171.8644 O.2     1  UNL1       -0.2501
     18 C         141.4252  141.4396  167.9163 C.3     1  UNL1        0.0322
     19 C         140.4427  140.6223  167.1312 C.3     1  UNL1        0.0943
     20 C         138.8331  138.7333  161.0822 C.3     1  UNL1        0.0420
     21 C         140.1873  138.6852  160.4388 C.3     1  UNL1        0.0585
     22 C         141.4792  139.1125  161.0703 C.3     1  UNL1        0.0175
     23 C         142.5777  138.8927  160.0728 C.3     1  UNL1        0.0199
     24 C         141.9648  138.3297  158.8248 C.3     1  UNL1        0.0855
     25 N         140.4875  138.2015  159.0510 N.3     1  UNL1       -0.2971
     26 H         140.2062  137.2256  158.9562 H       1  UNL1        0.1233
     27 C         142.7001  137.9599  157.5709 C.3     1  UNL1        0.1470
     28 O         143.7816  138.8557  157.0437 O.3     1  UNL1       -0.3787
     29 H         144.1517  138.4731  156.2329 H       1  UNL1        0.2108
     30 C         142.3539  136.6943  156.8440 C.ar    1  UNL1        0.0055
     31 C         141.2471  136.6896  155.8316 C.ar    1  UNL1       -0.0019
     32 C         140.9009  135.4240  155.1047 C.ar    1  UNL1       -0.0002
     33 C         141.6615  134.1630  155.3903 C.ar    1  UNL1       -0.0000
     34 C         142.7682  134.1677  156.4027 C.ar    1  UNL1       -0.0002
     35 C         143.1144  135.4333  157.1296 C.ar    1  UNL1       -0.0019
@<TRIPOS>BOND
     1     7     8    2
     2     8     1    1
     3     1     2   ar
     4     2     3   ar
     5     3     4   ar
     6     4    20    1
     7    21    20    1
     8    21    22    1
     9    22    23    1
    10    24    23    1
    11    24    27    1
    12    27    28    1
    13    27    30    1
    14    30    31   ar
    15    31    32   ar
    16    32    33   ar
    17    33    34   ar
    18    34    35   ar
    19    24    25    1
    20     4     5   ar
    21     5     6   ar
    22     8     9   am
    23     9    10    1
    24    10    11    1
    25    11    12    1
    26    12    13    1
    27    13    14    1
    28    14    15    1
    29    15    16    1
    30    16    17    2
    31    12    18    1
    32    18    19    1
    33     6     1   ar
    34    19     9    1
    35    25    21    1
    36    16    12    1
    37    35    30   ar
    38    28    29    1
    39    25    26    1
@<TRIPOS>MOLECULE
*****
 35 39 0 0 0
SMALL
GASTEIGER

@<TRIPOS>ATOM
      1 C         138.5657  139.2099  165.5186 C.ar    1  UNL1        0.0536
      2 C         138.0330  140.3872  164.7568 C.ar    1  UNL1        0.0042
      3 C         138.1438  140.4251  163.2613 C.ar    1  UNL1       -0.0041
      4 C         138.7872  139.2859  162.5278 C.ar    1  UNL1       -0.0208
      5 C         139.3199  138.1087  163.2896 C.ar    1  UNL1       -0.0041
      6 C         139.2091  138.0707  164.7850 C.ar    1  UNL1        0.0042
      7 O         137.3994  138.3294  167.6667 O.2     1  UNL1       -0.2699
      8 C         138.4549  139.1719  167.0140 C.2     1  UNL1        0.2490
      9 N         139.3998  139.9764  167.8568 N.am    1  UNL1       -0.2761
     10 C         139.2890  139.9383  169.3522 C.3     1  UNL1        0.0943
     11 C         140.2338  140.7428  170.1949 C.3     1  UNL1        0.0322
     12 C         141.2893  141.5853  169.5422 C.3     1  UNL1        0.0965
     13 C         142.3894  142.4694  169.0341 C.3     1  UNL1        0.0581
     14 C         143.0800  143.0775  170.2189 C.3     1  UNL1        0.2090
     15 O         142.4066  142.5691  171.4592 O.3     1  UNL1       -0.4485
     16 C         141.2999  141.6469  171.0409 C.2     1  UNL1        0.3161
     17 O         140.3676  140.9148  171.9600 O.2     1  UNL1       -0.2501
     18 C         141.4001  141.6233  168.0468 C.3     1  UNL1        0.0322
     19 C         140.4553  140.8189  167.2041 C.3     1  UNL1        0.0943
     20 C         138.8980  139.3240  161.0324 C.3     1  UNL1        0.0420
     21 C         139.6784  140.4179  160.3657 C.3     1  UNL1        0.0585
     22 C         139.6287  140.7748  158.9096 C.3     1  UNL1        0.0175
     23 C         140.5651  141.9244  158.6820 C.3     1  UNL1        0.0199
     24 C         141.1934  142.2779  159.9974 C.3     1  UNL1        0.0855
     25 N         140.6454  141.3468  161.0380 N.3     1  UNL1       -0.2971
     26 H         140.1655  141.8811  161.7623 H       1  UNL1        0.1233
     27 C         142.1940  143.3706  160.2312 C.3     1  UNL1        0.1470
     28 O         142.7025  144.1815  159.0763 O.3     1  UNL1       -0.3787
     29 H         143.3376  144.8402  159.3985 H       1  UNL1        0.2108
     30 C         142.6860  143.6524  161.6199 C.ar    1  UNL1        0.0055
     31 C         143.8940  142.9364  162.1473 C.ar    1  UNL1       -0.0019
     32 C         144.3861  143.2182  163.5360 C.ar    1  UNL1       -0.0002
     33 C         143.6702  144.2160  164.3973 C.ar    1  UNL1       -0.0000
     34 C         142.4622  144.9320  163.8699 C.ar    1  UNL1       -0.0002
     35 C         141.9701  144.6502  162.4812 C.ar    1  UNL1       -0.0019
@<TRIPOS>BOND
     1     7     8    2
     2     8     1    1
     3     1     2   ar
     4     2     3   ar
     5     3     4   ar
     6     4    20    1
     7    21    20    1
     8    21    22    1
     9    22    23    1
    10    24    23    1
    11    24    27    1
    12    27    28    1
    13    27    30    1
    14    30    31   ar
    15    31    32   ar
    16    32    33   ar
    17    33    34   ar
    18    34    35   ar
    19    24    25    1
    20     4     5   ar
    21     5     6   ar
    22     8     9   am
    23     9    10    1
    24    10    11    1
    25    11    12    1
    26    12    13    1
    27    13    14    1
    28    14    15    1
    29    15    16    1
    30    16    17    2
    31    12    18    1
    32    18    19    1
    33     6     1   ar
    34    19     9    1
    35    25    21    1
    36    16    12    1
    37    35    30   ar
    38    28    29    1
    39    25    26    1
@<TRIPOS>MOLECULE
*****
 35 39 0 0 0
SMALL
GASTEIGER

@<TRIPOS>ATOM
      1 C         143.3070  138.6732  165.3980 C.ar    1  UNL1        0.0536
      2 C         144.3352  139.4643  164.6449 C.ar    1  UNL1        0.0042
      3 C         144.2412  139.5882  163.1529 C.ar    1  UNL1       -0.0041
      4 C         143.1191  138.9211  162.4142 C.ar    1  UNL1       -0.0208
      5 C         142.0909  138.1300  163.1673 C.ar    1  UNL1       -0.0041
      6 C         142.1849  138.0061  164.6591 C.ar    1  UNL1        0.0042
      7 O         144.2077  137.4424  167.5012 O.2     1  UNL1       -0.2699
      8 C         143.4009  138.5493  166.8899 C.2     1  UNL1        0.2490
      9 N         142.6880  139.5323  167.7705 N.am    1  UNL1       -0.2761
     10 C         142.7819  139.4084  169.2624 C.3     1  UNL1        0.0943
     11 C         142.0690  140.3914  170.1430 C.3     1  UNL1        0.0322
     12 C         141.2622  141.4984  169.5317 C.3     1  UNL1        0.0965
     13 C         140.4224  142.6511  169.0668 C.3     1  UNL1        0.0581
     14 C         139.9051  143.3665  170.2796 C.3     1  UNL1        0.2090
     15 O         140.4252  142.6558  171.4940 O.3     1  UNL1       -0.4485
     16 C         141.2639  141.5013  171.0317 C.2     1  UNL1        0.3161
     17 O         141.9788  140.5216  171.9144 O.2     1  UNL1       -0.2501
     18 C         141.1683  141.6223  168.0398 C.3     1  UNL1        0.0322
     19 C         141.8812  140.6393  167.1592 C.3     1  UNL1        0.0943
     20 C         143.0252  139.0450  160.9223 C.3     1  UNL1        0.0420
     21 C         142.1487  140.0975  160.3108 C.3     1  UNL1        0.0585
     22 C         142.2207  140.5925  158.8966 C.3     1  UNL1        0.0175
     23 C         141.1627  141.6408  158.7180 C.3     1  UNL1        0.0199
     24 C         140.4369  141.7937  160.0217 C.3     1  UNL1        0.0855
     25 N         141.0462  140.8399  161.0061 N.3     1  UNL1       -0.2971
     26 H         140.3390  140.1821  161.3339 H       1  UNL1        0.1233
     27 C         139.3012  142.7351  160.2933 C.3     1  UNL1        0.1470
     28 O         138.2840  143.0110  159.2259 O.3     1  UNL1       -0.3787
     29 H         137.6233  143.6361  159.5628 H       1  UNL1        0.2108
     30 C         139.1825  143.4006  161.6323 C.ar    1  UNL1        0.0055
     31 C         137.9520  143.1959  162.4652 C.ar    1  UNL1       -0.0019
     32 C         137.8333  143.8615  163.8043 C.ar    1  UNL1       -0.0002
     33 C         138.9453  144.7317  164.3104 C.ar    1  UNL1       -0.0000
     34 C         140.1759  144.9364  163.4776 C.ar    1  UNL1       -0.0002
     35 C         140.2945  144.2709  162.1385 C.ar    1  UNL1       -0.0019
@<TRIPOS>BOND
     1     7     8    2
     2     8     1    1
     3     1     2   ar
     4     2     3   ar
     5     3     4   ar
     6     4    20    1
     7    21    20    1
     8    21    22    1
     9    22    23    1
    10    24    23    1
    11    24    27    1
    12    27    28    1
    13    27    30    1
    14    30    31   ar
    15    31    32   ar
    16    32    33   ar
    17    33    34   ar
    18    34    35   ar
    19    24    25    1
    20     4     5   ar
    21     5     6   ar
    22     8     9   am
    23     9    10    1
    24    10    11    1
    25    11    12    1
    26    12    13    1
    27    13    14    1
    28    14    15    1
    29    15    16    1
    30    16    17    2
    31    12    18    1
    32    18    19    1
    33     6     1   ar
    34    19     9    1
    35    25    21    1
    36    16    12    1
    37    35    30   ar
    38    28    29    1
    39    25    26    1
@<TRIPOS>MOLECULE
*****
 35 39 0 0 0
SMALL
GASTEIGER

@<TRIPOS>ATOM
      1 C         140.2908  139.0998  163.7933 C.ar    1  UNL1        0.0536
      2 C         139.5786  139.9568  162.7891 C.ar    1  UNL1        0.0042
      3 C         140.2445  140.3005  161.4897 C.ar    1  UNL1       -0.0041
      4 C         141.6227  139.7872  161.1945 C.ar    1  UNL1       -0.0208
      5 C         142.3349  138.9303  162.1986 C.ar    1  UNL1       -0.0041
      6 C         141.6690  138.5866  163.4980 C.ar    1  UNL1        0.0042
      7 O         138.8317  137.4891  165.2168 O.2     1  UNL1       -0.2699
      8 C         139.6249  138.7561  165.0926 C.2     1  UNL1        0.2490
      9 N         139.7523  139.6795  166.2680 N.am    1  UNL1       -0.2761
     10 C         139.0864  139.3357  167.5673 C.3     1  UNL1        0.0943
     11 C         139.2137  140.2591  168.7426 C.3     1  UNL1        0.0322
     12 C         140.0070  141.5261  168.6184 C.3     1  UNL1        0.0965
     13 C         140.7634  142.8211  168.6443 C.3     1  UNL1        0.0581
     14 C         140.6242  143.4119  170.0161 C.3     1  UNL1        0.2090
     15 O         139.7817  142.4819  170.8380 O.3     1  UNL1       -0.4485
     16 C         139.4003  141.3165  169.9742 C.2     1  UNL1        0.3161
     17 O         138.5598  140.1467  170.3926 O.2     1  UNL1       -0.2501
     18 C         140.6729  141.8698  167.3191 C.3     1  UNL1        0.0322
     19 C         140.5455  140.9465  166.1438 C.3     1  UNL1        0.0943
     20 C         142.2886  140.1310  159.8951 C.3     1  UNL1        0.0420
     21 C         142.2109  139.1797  158.7379 C.3     1  UNL1        0.0585
     22 C         140.9584  138.7456  158.0359 C.3     1  UNL1        0.0175
     23 C         141.3456  137.7932  156.9436 C.3     1  UNL1        0.0199
     24 C         142.8374  137.6386  156.9706 C.3     1  UNL1        0.0855
     25 N         143.3722  138.4956  158.0795 N.3     1  UNL1       -0.2971
     26 H         144.0143  139.1915  157.7003 H       1  UNL1        0.1233
     27 C         143.6513  136.7782  156.0503 C.3     1  UNL1        0.1470
     28 O         144.8709  137.3398  155.3815 O.3     1  UNL1       -0.3787
     29 H         145.2775  136.6574  154.8248 H       1  UNL1        0.2108
     30 C         143.2457  135.3562  155.7987 C.ar    1  UNL1        0.0055
     31 C         143.3100  134.3502  156.9095 C.ar    1  UNL1       -0.0019
     32 C         142.9044  132.9282  156.6579 C.ar    1  UNL1       -0.0002
     33 C         142.4345  132.5121  155.2955 C.ar    1  UNL1       -0.0000
     34 C         142.3702  133.5180  154.1847 C.ar    1  UNL1       -0.0002
     35 C         142.7758  134.9401  154.4363 C.ar    1  UNL1       -0.0019
@<TRIPOS>BOND
     1     7     8    2
     2     8     1    1
     3     1     2   ar
     4     2     3   ar
     5     3     4   ar
     6     4    20    1
     7    21    20    1
     8    21    22    1
     9    22    23    1
    10    24    23    1
    11    24    27    1
    12    27    28    1
    13    27    30    1
    14    30    31   ar
    15    31    32   ar
    16    32    33   ar
    17    33    34   ar
    18    34    35   ar
    19    24    25    1
    20     4     5   ar
    21     5     6   ar
    22     8     9   am
    23     9    10    1
    24    10    11    1
    25    11    12    1
    26    12    13    1
    27    13    14    1
    28    14    15    1
    29    15    16    1
    30    16    17    2
    31    12    18    1
    32    18    19    1
    33     6     1   ar
    34    19     9    1
    35    25    21    1
    36    16    12    1
    37    35    30   ar
    38    28    29    1
    39    25    26    1
@<TRIPOS>MOLECULE
*****
 35 39 0 0 0
SMALL
GASTEIGER

@<TRIPOS>ATOM
      1 C         139.4710  138.3062  164.1550 C.ar    1  UNL1        0.0536
      2 C         138.7213  139.0369  163.0808 C.ar    1  UNL1        0.0042
      3 C         139.2785  139.1029  161.6896 C.ar    1  UNL1       -0.0041
      4 C         140.5852  138.4382  161.3727 C.ar    1  UNL1       -0.0208
      5 C         141.3349  137.7074  162.4470 C.ar    1  UNL1       -0.0041
      6 C         140.7778  137.6414  163.8381 C.ar    1  UNL1        0.0042
      7 O         137.9981  137.1176  165.9348 O.2     1  UNL1       -0.2699
      8 C         138.9139  138.2402  165.5461 C.2     1  UNL1        0.2490
      9 N         139.2725  139.2968  166.5486 N.am    1  UNL1       -0.2761
     10 C         138.7154  139.2308  167.9397 C.3     1  UNL1        0.0943
     11 C         139.0741  140.2875  168.9421 C.3     1  UNL1        0.0322
     12 C         139.9899  141.4101  168.5534 C.3     1  UNL1        0.0965
     13 C         140.8886  142.5864  168.3113 C.3     1  UNL1        0.0581
     14 C         140.9670  143.3793  169.5823 C.3     1  UNL1        0.2090
     15 O         140.1166  142.6930  170.6099 O.3     1  UNL1       -0.4485
     16 C         139.5127  141.4760  169.9741 C.2     1  UNL1        0.3161
     17 O         138.5932  140.4968  170.6415 O.2     1  UNL1       -0.2501
     18 C         140.5470  141.4761  167.1623 C.3     1  UNL1        0.0322
     19 C         140.1883  140.4195  166.1599 C.3     1  UNL1        0.0943
     20 C         141.1423  138.5042  159.9816 C.3     1  UNL1        0.0420
     21 C         142.2570  139.4564  159.6645 C.3     1  UNL1        0.0585
     22 C         142.9825  139.5602  158.3556 C.3     1  UNL1        0.0175
     23 C         144.0159  140.6400  158.4828 C.3     1  UNL1        0.0199
     24 C         143.9291  141.2037  159.8702 C.3     1  UNL1        0.0855
     25 N         142.8421  140.4721  160.6005 N.3     1  UNL1       -0.2971
     26 H         142.1192  141.1293  160.8938 H       1  UNL1        0.1233
     27 C         144.7799  142.3053  160.4291 C.3     1  UNL1        0.1470
     28 O         145.7226  143.0529  159.5333 O.3     1  UNL1       -0.3787
     29 H         146.1929  143.7264  160.0490 H       1  UNL1        0.2108
     30 C         144.6880  142.6594  161.8838 C.ar    1  UNL1        0.0055
     31 C         145.3757  141.8064  162.9082 C.ar    1  UNL1       -0.0019
     32 C         145.2838  142.1605  164.3629 C.ar    1  UNL1       -0.0002
     33 C         144.5042  143.3676  164.7932 C.ar    1  UNL1       -0.0000
     34 C         143.8165  144.2206  163.7688 C.ar    1  UNL1       -0.0002
     35 C         143.9084  143.8665  162.3141 C.ar    1  UNL1       -0.0019
@<TRIPOS>BOND
     1     7     8    2
     2     8     1    1
     3     1     2   ar
     4     2     3   ar
     5     3     4   ar
     6     4    20    1
     7    21    20    1
     8    21    22    1
     9    22    23    1
    10    24    23    1
    11    24    27    1
    12    27    28    1
    13    27    30    1
    14    30    31   ar
    15    31    32   ar
    16    32    33   ar
    17    33    34   ar
    18    34    35   ar
    19    24    25    1
    20     4     5   ar
    21     5     6   ar
    22     8     9   am
    23     9    10    1
    24    10    11    1
    25    11    12    1
    26    12    13    1
    27    13    14    1
    28    14    15    1
    29    15    16    1
    30    16    17    2
    31    12    18    1
    32    18    19    1
    33     6     1   ar
    34    19     9    1
    35    25    21    1
    36    16    12    1
    37    35    30   ar
    38    28    29    1
    39    25    26    1
@<TRIPOS>MOLECULE
*****
 35 39 0 0 0
SMALL
GASTEIGER

@<TRIPOS>ATOM
      1 C         138.5385  138.9049  165.6440 C.ar    1  UNL1        0.0536
      2 C         138.0915  139.9913  164.7113 C.ar    1  UNL1        0.0042
      3 C         138.2418  139.8163  163.2291 C.ar    1  UNL1       -0.0041
      4 C         138.8392  138.5549  162.6797 C.ar    1  UNL1       -0.0208
      5 C         139.2862  137.4685  163.6123 C.ar    1  UNL1       -0.0041
      6 C         139.1359  137.6435  165.0945 C.ar    1  UNL1        0.0042
      7 O         137.2360  138.4415  167.8437 O.2     1  UNL1       -0.2699
      8 C         138.3882  139.0799  167.1261 C.2     1  UNL1        0.2490
      9 N         139.3901  139.8934  167.8907 N.am    1  UNL1       -0.2761
     10 C         139.2397  140.0684  169.3729 C.3     1  UNL1        0.0943
     11 C         140.2416  140.8818  170.1374 C.3     1  UNL1        0.0322
     12 C         141.3938  141.5202  169.4198 C.3     1  UNL1        0.0965
     13 C         142.5910  142.2148  168.8418 C.3     1  UNL1        0.0581
     14 C         143.3115  142.9058  169.9615 C.3     1  UNL1        0.2090
     15 O         142.5595  142.6382  171.2315 O.3     1  UNL1       -0.4485
     16 C         141.3743  141.7819  170.8968 C.2     1  UNL1        0.3161
     17 O         140.3495  141.2761  171.8683 O.2     1  UNL1       -0.2501
     18 C         141.5441  141.3452  167.9377 C.3     1  UNL1        0.0322
     19 C         140.5422  140.5318  167.1732 C.3     1  UNL1        0.0943
     20 C         138.9895  138.3799  161.1975 C.3     1  UNL1        0.0420
     21 C         139.4673  139.5230  160.3520 C.3     1  UNL1        0.0585
     22 C         140.8983  139.8986  160.1043 C.3     1  UNL1        0.0175
     23 C         140.9134  141.0990  159.2049 C.3     1  UNL1        0.0199
     24 C         139.4918  141.4652  158.8967 C.3     1  UNL1        0.0855
     25 N         138.5981  140.4912  159.6056 N.3     1  UNL1       -0.2971
     26 H         138.0252  139.9898  158.9268 H       1  UNL1        0.1233
     27 C         139.0429  142.6052  158.0315 C.3     1  UNL1        0.1470
     28 O         137.6154  142.6857  157.5780 O.3     1  UNL1       -0.3787
     29 H         137.4941  143.4773  157.0307 H       1  UNL1        0.2108
     30 C         140.0215  143.6648  157.6197 C.ar    1  UNL1        0.0055
     31 C         140.4248  144.7324  158.5932 C.ar    1  UNL1       -0.0019
     32 C         141.4034  145.7920  158.1814 C.ar    1  UNL1       -0.0002
     33 C         141.9787  145.7841  156.7962 C.ar    1  UNL1       -0.0000
     34 C         141.5754  144.7166  155.8227 C.ar    1  UNL1       -0.0002
     35 C         140.5968  143.6569  156.2344 C.ar    1  UNL1       -0.0019
@<TRIPOS>BOND
     1     7     8    2
     2     8     1    1
     3     1     2   ar
     4     2     3   ar
     5     3     4   ar
     6     4    20    1
     7    21    20    1
     8    21    22    1
     9    22    23    1
    10    24    23    1
    11    24    27    1
    12    27    28    1
    13    27    30    1
    14    30    31   ar
    15    31    32   ar
    16    32    33   ar
    17    33    34   ar
    18    34    35   ar
    19    24    25    1
    20     4     5   ar
    21     5     6   ar
    22     8     9   am
    23     9    10    1
    24    10    11    1
    25    11    12    1
    26    12    13    1
    27    13    14    1
    28    14    15    1
    29    15    16    1
    30    16    17    2
    31    12    18    1
    32    18    19    1
    33     6     1   ar
    34    19     9    1
    35    25    21    1
    36    16    12    1
    37    35    30   ar
    38    28    29    1
    39    25    26    1
@<TRIPOS>MOLECULE
*****
 35 39 0 0 0
SMALL
GASTEIGER

@<TRIPOS>ATOM
      1 C         142.7310  139.1468  163.0788 C.ar    1  UNL1        0.0536
      2 C         142.8618  140.3546  162.1990 C.ar    1  UNL1        0.0042
      3 C         142.2017  140.3764  160.8521 C.ar    1  UNL1       -0.0041
      4 C         141.4109  139.1904  160.3852 C.ar    1  UNL1       -0.0208
      5 C         141.2801  137.9826  161.2650 C.ar    1  UNL1       -0.0041
      6 C         141.9401  137.9608  162.6118 C.ar    1  UNL1        0.0042
      7 O         144.8648  138.8681  164.5345 O.2     1  UNL1       -0.2699
      8 C         143.3910  139.1249  164.4256 C.2     1  UNL1        0.2490
      9 N         142.5772  139.3600  165.6636 N.am    1  UNL1       -0.2761
     10 C         143.2372  139.3381  167.0103 C.3     1  UNL1        0.0943
     11 C         142.4234  139.5731  168.2482 C.3     1  UNL1        0.0322
     12 C         140.9495  139.8300  168.1393 C.3     1  UNL1        0.0965
     13 C         139.4745  140.0983  168.1870 C.3     1  UNL1        0.0581
     14 C         139.0812  140.2722  169.6242 C.3     1  UNL1        0.2090
     15 O         140.3132  140.1112  170.4646 O.3     1  UNL1       -0.4485
     16 C         141.4679  139.8380  169.5470 C.2     1  UNL1        0.3161
     17 O         142.8910  139.6123  169.9637 O.2     1  UNL1       -0.2501
     18 C         140.2895  139.8519  166.7926 C.3     1  UNL1        0.0322
     19 C         141.1033  139.6168  165.5547 C.3     1  UNL1        0.0943
     20 C         140.7509  139.2123  159.0384 C.3     1  UNL1        0.0420
     21 C         141.1524  138.2172  157.9902 C.3     1  UNL1        0.0585
     22 C         140.2468  137.6047  156.9630 C.3     1  UNL1        0.0175
     23 C         141.0647  136.6690  156.1231 C.3     1  UNL1        0.0199
     24 C         142.4757  136.7031  156.6311 C.3     1  UNL1        0.0855
     25 N         142.5298  137.6600  157.7850 N.3     1  UNL1       -0.2971
     26 H         143.1818  138.4164  157.5771 H       1  UNL1        0.1233
     27 C         143.6297  135.9182  156.0817 C.3     1  UNL1        0.1470
     28 O         144.8204  136.6327  155.5144 O.3     1  UNL1       -0.3787
     29 H         145.4704  135.9826  155.2050 H       1  UNL1        0.2108
     30 C         143.5931  134.4187  156.0995 C.ar    1  UNL1        0.0055
     31 C         144.0806  133.6709  157.3048 C.ar    1  UNL1       -0.0019
     32 C         144.0440  132.1714  157.3226 C.ar    1  UNL1       -0.0002
     33 C         143.5198  131.4198  156.1350 C.ar    1  UNL1       -0.0000
     34 C         143.0323  132.1677  154.9296 C.ar    1  UNL1       -0.0002
     35 C         143.0690  133.6672  154.9119 C.ar    1  UNL1       -0.0019
@<TRIPOS>BOND
     1     7     8    2
     2     8     1    1
     3     1     2   ar
     4     2     3   ar
     5     3     4   ar
     6     4    20    1
     7    21    20    1
     8    21    22    1
     9    22    23    1
    10    24    23    1
    11    24    27    1
    12    27    28    1
    13    27    30    1
    14    30    31   ar
    15    31    32   ar
    16    32    33   ar
    17    33    34   ar
    18    34    35   ar
    19    24    25    1
    20     4     5   ar
    21     5     6   ar
    22     8     9   am
    23     9    10    1
    24    10    11    1
    25    11    12    1
    26    12    13    1
    27    13    14    1
    28    14    15    1
    29    15    16    1
    30    16    17    2
    31    12    18    1
    32    18    19    1
    33     6     1   ar
    34    19     9    1
    35    25    21    1
    36    16    12    1
    37    35    30   ar
    38    28    29    1
    39    25    26    1
@<TRIPOS>MOLECULE
*****
 35 39 0 0 0
SMALL
GASTEIGER

@<TRIPOS>ATOM
      1 C         138.9430  138.9651  165.4978 C.ar    1  UNL1        0.0536
      2 C         139.7280  137.7729  165.0367 C.ar    1  UNL1        0.0042
      3 C         139.9908  137.5679  163.5742 C.ar    1  UNL1       -0.0041
      4 C         139.4686  138.5551  162.5728 C.ar    1  UNL1       -0.0208
      5 C         138.6836  139.7472  163.0339 C.ar    1  UNL1       -0.0041
      6 C         138.4208  139.9522  164.4963 C.ar    1  UNL1        0.0042
      7 O         137.4601  138.5707  167.5943 O.2     1  UNL1       -0.2699
      8 C         138.6803  139.1701  166.9603 C.2     1  UNL1        0.2490
      9 N         139.6377  139.9746  167.7888 N.am    1  UNL1       -0.2761
     10 C         139.3749  140.1796  169.2513 C.3     1  UNL1        0.0943
     11 C         140.3323  140.9840  170.0797 C.3     1  UNL1        0.0322
     12 C         141.5524  141.5834  169.4456 C.3     1  UNL1        0.0965
     13 C         142.8078  142.2404  168.9533 C.3     1  UNL1        0.0581
     14 C         143.4538  142.9352  170.1153 C.3     1  UNL1        0.2090
     15 O         142.5976  142.7075  171.3258 O.3     1  UNL1       -0.4485
     16 C         141.4225  141.8721  170.9119 C.2     1  UNL1        0.3161
     17 O         140.3124  141.4069  171.8071 O.2     1  UNL1       -0.2501
     18 C         141.8151  141.3784  167.9832 C.3     1  UNL1        0.0322
     19 C         140.8578  140.5740  167.1548 C.3     1  UNL1        0.0943
     20 C         139.7313  138.3500  161.1103 C.3     1  UNL1        0.0420
     21 C         141.0298  138.8025  160.5109 C.3     1  UNL1        0.0585
     22 C         142.2757  137.9774  160.3806 C.3     1  UNL1        0.0175
     23 C         143.3262  138.8245  159.7257 C.3     1  UNL1        0.0199
     24 C         142.7296  140.1732  159.4514 C.3     1  UNL1        0.0855
     25 N         141.3104  140.1595  159.9367 N.3     1  UNL1       -0.2971
     26 H         140.6768  140.3440  159.1589 H       1  UNL1        0.1233
     27 C         143.4295  141.3319  158.8053 C.3     1  UNL1        0.1470
     28 O         143.2637  142.7142  159.3636 O.3     1  UNL1       -0.3787
     29 H         143.7791  143.3413  158.8325 H       1  UNL1        0.2108
     30 C         144.2950  141.1083  157.6008 C.ar    1  UNL1        0.0055
     31 C         144.0027  139.9707  156.6679 C.ar    1  UNL1       -0.0019
     32 C         144.8682  139.7470  155.4634 C.ar    1  UNL1       -0.0002
     33 C         146.0262  140.6610  155.1918 C.ar    1  UNL1       -0.0000
     34 C         146.3186  141.7986  156.1247 C.ar    1  UNL1       -0.0002
     35 C         145.4530  142.0222  157.3292 C.ar    1  UNL1       -0.0019
@<TRIPOS>BOND
     1     7     8    2
     2     8     1    1
     3     1     2   ar
     4     2     3   ar
     5     3     4   ar
     6     4    20    1
     7    21    20    1
     8    21    22    1
     9    22    23    1
    10    24    23    1
    11    24    27    1
    12    27    28    1
    13    27    30    1
    14    30    31   ar
    15    31    32   ar
    16    32    33   ar
    17    33    34   ar
    18    34    35   ar
    19    24    25    1
    20     4     5   ar
    21     5     6   ar
    22     8     9   am
    23     9    10    1
    24    10    11    1
    25    11    12    1
    26    12    13    1
    27    13    14    1
    28    14    15    1
    29    15    16    1
    30    16    17    2
    31    12    18    1
    32    18    19    1
    33     6     1   ar
    34    19     9    1
    35    25    21    1
    36    16    12    1
    37    35    30   ar
    38    28    29    1
    39    25    26    1
