@<TRIPOS>MOLECULE
*****
 40 45 0 0 0
SMALL
GASTEIGER

@<TRIPOS>ATOM
      1 C         141.0333  144.5373  159.1151 C.3     1  UNL1        0.0758
      2 C         140.8868  145.1783  160.4633 C.3     1  UNL1        0.0370
      3 C         141.8547  144.8472  161.5603 C.3     1  UNL1        0.0741
      4 N         142.9692  143.8752  161.3091 N.3     1  UNL1       -0.2688
      5 C         143.1157  143.2342  159.9609 C.3     1  UNL1        0.0741
      6 C         142.1477  143.5653  158.8638 C.3     1  UNL1        0.0370
      7 O         141.8878  146.2982  156.8415 O.2     1  UNL1       -0.2528
      8 C         140.4926  145.7488  156.8812 C.2     1  UNL1        0.3006
      9 N         140.0653  144.8683  158.0181 N.am    1  UNL1       -0.2905
     10 N         139.5246  146.0798  155.7842 N.am    1  UNL1       -0.2920
     11 H         139.1496  144.5078  158.0442 H       1  UNL1        0.1509
     12 H         138.6089  145.7193  155.8103 H       1  UNL1        0.1508
     13 C         139.9519  146.9603  154.6474 C.3     1  UNL1        0.0604
     14 C         139.5542  148.4065  154.6284 C.3     1  UNL1        0.0182
     15 C         139.9815  149.2868  153.4916 C.3     1  UNL1        0.0039
     16 C         140.8064  148.7210  152.3738 C.3     1  UNL1        0.0003
     17 C         141.2040  147.2749  152.3928 C.3     1  UNL1        0.0039
     18 C         139.4352  147.8107  155.1118 C.3     1  UNL1        0.0270
     19 C         138.7293  148.9723  155.7461 C.3     1  UNL1        0.0899
     20 O         137.9044  149.5381  156.8639 O.3     1  UNL1       -0.3867
     21 C         139.1566  149.8526  154.6093 C.3     1  UNL1        0.0270
     22 C         139.1270  147.5261  155.7652 C.3     1  UNL1        0.0449
     23 C         140.7768  146.3945  153.5296 C.3     1  UNL1        0.0182
     24 H         137.7371  150.4790  156.6980 H       1  UNL1        0.2102
     25 C         143.9372  143.5441  162.4061 C.3     1  UNL1        0.1007
     26 C         143.4677  142.8013  163.6217 C.ar    1  UNL1        0.0129
     27 C         144.2346  142.6262  164.8989 C.ar    1  UNL1        0.0176
     28 C         143.3897  141.8198  165.8401 C.ar    1  UNL1        0.0799
     29 N         142.1006  141.4965  165.1447 N.ar    1  UNL1       -0.3038
     30 C         142.1488  142.1031  163.7737 C.ar    1  UNL1        0.0772
     31 C         140.9630  140.7055  165.7193 C.ar    1  UNL1        0.0640
     32 C         140.6425  140.8062  167.1813 C.ar    1  UNL1        0.0175
     33 C         139.5049  140.0152  167.7558 C.ar    1  UNL1        0.0053
     34 C         138.6879  139.1235  166.8686 C.ar    1  UNL1        0.0715
     35 C         139.0084  139.0228  165.4067 C.ar    1  UNL1        0.0053
     36 C         140.1460  139.8138  164.8321 C.ar    1  UNL1        0.0175
     37 C         137.5502  138.3325  167.4432 C.3     1  UNL1        0.4186
     38 F         136.4127  137.5415  168.0179 F       1  UNL1       -0.1659
     39 F         137.5419  139.2219  168.6510 F       1  UNL1       -0.1659
     40 F         137.5586  137.4431  166.2354 F       1  UNL1       -0.1659
@<TRIPOS>BOND
     1     7     8    2
     2     8     9   am
     3     9     1    1
     4     1     2    1
     5     2     3    1
     6     3     4    1
     7     4    25    1
     8    25    26    1
     9    26    27   ar
    10    27    28   ar
    11    28    29   ar
    12    29    31    1
    13    31    32   ar
    14    32    33   ar
    15    33    34   ar
    16    34    37    1
    17    37    38    1
    18    37    39    1
    19    37    40    1
    20    34    35   ar
    21    35    36   ar
    22    29    30   ar
    23     4     5    1
    24     5     6    1
    25     8    10   am
    26    10    13    1
    27    13    14    1
    28    14    15    1
    29    15    16    1
    30    16    17    1
    31    17    18    1
    32    18    19    1
    33    19    20    1
    34    19    21    1
    35    19    22    1
    36    17    23    1
    37     6     1    1
    38    22    13    1
    39    30    26   ar
    40    23    13    1
    41    36    31   ar
    42    21    15    1
    43     9    11    1
    44    10    12    1
    45    20    24    1
@<TRIPOS>MOLECULE
*****
 40 45 0 0 0
SMALL
GASTEIGER

@<TRIPOS>ATOM
      1 C         140.9742  143.9849  158.4740 C.3     1  UNL1        0.0758
      2 C         141.3040  144.6037  159.8000 C.3     1  UNL1        0.0370
      3 C         142.3347  143.9710  160.6873 C.3     1  UNL1        0.0741
      4 N         143.0357  142.7195  160.2486 N.3     1  UNL1       -0.2688
      5 C         142.7059  142.1007  158.9225 C.3     1  UNL1        0.0741
      6 C         141.6751  142.7335  158.0352 C.3     1  UNL1        0.0370
      7 O         141.7773  146.1256  156.5317 O.2     1  UNL1       -0.2528
      8 C         140.3451  145.6880  156.6155 C.2     1  UNL1        0.3006
      9 N         139.9435  144.6176  157.5867 N.am    1  UNL1       -0.2905
     10 N         139.3144  146.3207  155.7283 N.am    1  UNL1       -0.2920
     11 H         139.0034  144.3304  157.6418 H       1  UNL1        0.1509
     12 H         138.3743  146.0334  155.7833 H       1  UNL1        0.1508
     13 C         139.7159  147.3911  154.7571 C.3     1  UNL1        0.0604
     14 C         139.3169  148.8158  155.0039 C.3     1  UNL1        0.0182
     15 C         139.7185  149.8860  154.0328 C.3     1  UNL1        0.0039
     16 C         140.5190  149.5316  152.8148 C.3     1  UNL1        0.0003
     17 C         140.9180  148.1069  152.5679 C.3     1  UNL1        0.0039
     18 C         139.2089  148.1430  155.3762 C.3     1  UNL1        0.0270
     19 C         138.5164  149.1702  156.2219 C.3     1  UNL1        0.0899
     20 O         137.7159  149.5246  157.4399 O.3     1  UNL1       -0.3867
     21 C         138.9180  150.2405  155.2508 C.3     1  UNL1        0.0270
     22 C         138.9154  147.7455  155.9751 C.3     1  UNL1        0.0449
     23 C         140.5165  147.0366  153.5391 C.3     1  UNL1        0.0182
     24 H         137.5442  150.4792  157.4475 H       1  UNL1        0.2102
     25 C         144.0664  142.0868  161.1358 C.3     1  UNL1        0.1007
     26 C         143.6433  141.1429  162.2221 C.ar    1  UNL1        0.0129
     27 C         144.5415  140.2094  162.9783 C.ar    1  UNL1        0.0176
     28 C         143.7011  139.4563  163.9665 C.ar    1  UNL1        0.0799
     29 N         142.2834  139.9243  163.8211 N.ar    1  UNL1       -0.3038
     30 C         142.2477  140.9667  162.7430 C.ar    1  UNL1        0.0772
     31 C         141.1079  139.4358  164.6145 C.ar    1  UNL1        0.0640
     32 C         140.6277  140.2166  165.8018 C.ar    1  UNL1        0.0175
     33 C         139.4522  139.7281  166.5951 C.ar    1  UNL1        0.0053
     34 C         138.7568  138.4588  166.2011 C.ar    1  UNL1        0.0715
     35 C         139.2370  137.6780  165.0137 C.ar    1  UNL1        0.0053
     36 C         140.4125  138.1665  164.2204 C.ar    1  UNL1        0.0175
     37 C         137.5812  137.9702  166.9944 C.3     1  UNL1        0.4186
     38 F         136.4056  137.4816  167.7877 F       1  UNL1       -0.1659
     39 F         137.6247  136.6656  166.2553 F       1  UNL1       -0.1659
     40 F         137.5378  139.2747  167.7334 F       1  UNL1       -0.1659
@<TRIPOS>BOND
     1     7     8    2
     2     8     9   am
     3     9     1    1
     4     1     2    1
     5     2     3    1
     6     3     4    1
     7     4    25    1
     8    25    26    1
     9    26    27   ar
    10    27    28   ar
    11    28    29   ar
    12    29    31    1
    13    31    32   ar
    14    32    33   ar
    15    33    34   ar
    16    34    37    1
    17    37    38    1
    18    37    39    1
    19    37    40    1
    20    34    35   ar
    21    35    36   ar
    22    29    30   ar
    23     4     5    1
    24     5     6    1
    25     8    10   am
    26    10    13    1
    27    13    14    1
    28    14    15    1
    29    15    16    1
    30    16    17    1
    31    17    18    1
    32    18    19    1
    33    19    20    1
    34    19    21    1
    35    19    22    1
    36    17    23    1
    37     6     1    1
    38    22    13    1
    39    30    26   ar
    40    23    13    1
    41    36    31   ar
    42    21    15    1
    43     9    11    1
    44    10    12    1
    45    20    24    1
@<TRIPOS>MOLECULE
*****
 40 45 0 0 0
SMALL
GASTEIGER

@<TRIPOS>ATOM
      1 C         142.6759  139.4067  157.9671 C.3     1  UNL1        0.0758
      2 C         142.1684  140.6532  157.3047 C.3     1  UNL1        0.0370
      3 C         141.3667  141.6474  158.0913 C.3     1  UNL1        0.0741
      4 N         141.0723  141.3951  159.5403 N.3     1  UNL1       -0.2688
      5 C         141.5797  140.1486  160.2028 C.3     1  UNL1        0.0741
      6 C         142.3815  139.1544  159.4161 C.3     1  UNL1        0.0370
      7 O         141.3153  137.0600  156.6858 O.2     1  UNL1       -0.2528
      8 C         142.7973  137.2392  156.5399 C.2     1  UNL1        0.3006
      9 N         143.4776  138.4126  157.1805 N.am    1  UNL1       -0.2905
     10 N         143.5991  136.2450  155.7533 N.am    1  UNL1       -0.2920
     11 H         144.4504  138.5302  157.0847 H       1  UNL1        0.1509
     12 H         144.5719  136.3626  155.6575 H       1  UNL1        0.1508
     13 C         142.9188  135.0716  155.1126 C.3     1  UNL1        0.0604
     14 C         142.8927  133.7455  155.8131 C.3     1  UNL1        0.0182
     15 C         142.2124  132.5722  155.1725 C.3     1  UNL1        0.0039
     16 C         141.5582  132.7249  153.8313 C.3     1  UNL1        0.0003
     17 C         141.5843  134.0510  153.1308 C.3     1  UNL1        0.0039
     18 C         143.1843  134.4466  155.9756 C.3     1  UNL1        0.0270
     19 C         143.5469  133.5927  157.1543 C.3     1  UNL1        0.0899
     20 O         144.2011  133.4400  158.4954 O.3     1  UNL1       -0.3867
     21 C         142.8666  132.4194  156.5136 C.3     1  UNL1        0.0270
     22 C         143.5730  134.9188  156.4538 C.3     1  UNL1        0.0449
     23 C         142.2646  135.2244  153.7715 C.3     1  UNL1        0.0182
     24 H         144.0935  132.5272  158.8056 H       1  UNL1        0.2102
     25 C         140.2705  142.3892  160.3269 C.3     1  UNL1        0.1007
     26 C         139.5554  141.9582  161.5731 C.ar    1  UNL1        0.0129
     27 C         138.0933  141.6428  161.6863 C.ar    1  UNL1        0.0176
     28 C         137.8111  141.2565  163.1079 C.ar    1  UNL1        0.0799
     29 N         139.0988  141.3332  163.8734 N.ar    1  UNL1       -0.3038
     30 C         140.1768  141.7669  162.9248 C.ar    1  UNL1        0.0772
     31 C         139.2772  141.0296  165.3315 C.ar    1  UNL1        0.0640
     32 C         138.7140  139.7647  165.9086 C.ar    1  UNL1        0.0175
     33 C         138.8924  139.4612  167.3666 C.ar    1  UNL1        0.0053
     34 C         139.6340  140.4224  168.2476 C.ar    1  UNL1        0.0715
     35 C         140.1972  141.6872  167.6705 C.ar    1  UNL1        0.0053
     36 C         140.0188  141.9908  166.2124 C.ar    1  UNL1        0.0175
     37 C         139.8125  140.1188  169.7057 C.3     1  UNL1        0.4186
     38 F         139.9909  139.8152  171.1638 F       1  UNL1       -0.1659
     39 F         141.1337  139.4733  169.4096 F       1  UNL1       -0.1659
     40 F         138.4913  140.7643  170.0018 F       1  UNL1       -0.1659
@<TRIPOS>BOND
     1     7     8    2
     2     8     9   am
     3     9     1    1
     4     1     2    1
     5     2     3    1
     6     3     4    1
     7     4    25    1
     8    25    26    1
     9    26    27   ar
    10    27    28   ar
    11    28    29   ar
    12    29    31    1
    13    31    32   ar
    14    32    33   ar
    15    33    34   ar
    16    34    37    1
    17    37    38    1
    18    37    39    1
    19    37    40    1
    20    34    35   ar
    21    35    36   ar
    22    29    30   ar
    23     4     5    1
    24     5     6    1
    25     8    10   am
    26    10    13    1
    27    13    14    1
    28    14    15    1
    29    15    16    1
    30    16    17    1
    31    17    18    1
    32    18    19    1
    33    19    20    1
    34    19    21    1
    35    19    22    1
    36    17    23    1
    37     6     1    1
    38    22    13    1
    39    30    26   ar
    40    23    13    1
    41    36    31   ar
    42    21    15    1
    43     9    11    1
    44    10    12    1
    45    20    24    1
@<TRIPOS>MOLECULE
*****
 40 45 0 0 0
SMALL
GASTEIGER

@<TRIPOS>ATOM
      1 C         142.4689  139.1368  158.2941 C.3     1  UNL1        0.0758
      2 C         142.0643  138.7356  159.6817 C.3     1  UNL1        0.0370
      3 C         141.1638  139.6248  160.4869 C.3     1  UNL1        0.0741
      4 N         140.6678  140.9152  159.9045 N.3     1  UNL1       -0.2688
      5 C         141.0725  141.3163  158.5169 C.3     1  UNL1        0.0741
      6 C         141.9730  140.4270  157.7117 C.3     1  UNL1        0.0370
      7 O         141.3145  136.8462  156.7383 O.2     1  UNL1       -0.2528
      8 C         142.7922  137.1022  156.7110 C.2     1  UNL1        0.3006
      9 N         143.3694  138.2476  157.4889 N.am    1  UNL1       -0.2905
     10 N         143.6927  136.2131  155.9058 N.am    1  UNL1       -0.2920
     11 H         144.3393  138.4157  157.4710 H       1  UNL1        0.1509
     12 H         144.6626  136.3812  155.8879 H       1  UNL1        0.1508
     13 C         143.1155  135.0677  155.1278 C.3     1  UNL1        0.0604
     14 C         143.2032  133.6723  155.6710 C.3     1  UNL1        0.0182
     15 C         142.6260  132.5271  154.8931 C.3     1  UNL1        0.0039
     16 C         141.9612  132.7773  153.5719 C.3     1  UNL1        0.0003
     17 C         141.8736  134.1727  153.0287 C.3     1  UNL1        0.0039
     18 C         143.4336  134.3722  155.9158 C.3     1  UNL1        0.0270
     19 C         143.8680  133.4222  156.9922 C.3     1  UNL1        0.0899
     20 O         144.5328  133.1720  158.3133 O.3     1  UNL1       -0.3867
     21 C         143.2908  132.2769  156.2142 C.3     1  UNL1        0.0270
     22 C         143.7804  134.8176  156.4490 C.3     1  UNL1        0.0449
     23 C         142.4507  135.3179  153.8067 C.3     1  UNL1        0.0182
     24 H         144.5038  132.2237  158.5155 H       1  UNL1        0.2102
     25 C         139.7673  141.8044  160.7097 C.3     1  UNL1        0.1007
     26 C         139.3152  141.3760  162.0743 C.ar    1  UNL1        0.0129
     27 C         138.0942  140.5613  162.3832 C.ar    1  UNL1        0.0176
     28 C         138.0291  140.3689  163.8694 C.ar    1  UNL1        0.0799
     29 N         139.2099  141.0647  164.4790 N.ar    1  UNL1       -0.3038
     30 C         140.0047  141.6871  163.3696 C.ar    1  UNL1        0.0772
     31 C         139.5382  141.1272  165.9413 C.ar    1  UNL1        0.0640
     32 C         140.2245  142.3361  166.5050 C.ar    1  UNL1        0.0175
     33 C         140.5527  142.3985  167.9672 C.ar    1  UNL1        0.0053
     34 C         140.1948  141.2521  168.8658 C.ar    1  UNL1        0.0715
     35 C         139.5085  140.0432  168.3022 C.ar    1  UNL1        0.0053
     36 C         139.1802  139.9808  166.8400 C.ar    1  UNL1        0.0175
     37 C         140.5231  141.3145  170.3282 C.3     1  UNL1        0.4186
     38 F         140.8513  141.3769  171.7905 F       1  UNL1       -0.1659
     39 F         139.8907  139.9690  170.5276 F       1  UNL1       -0.1659
     40 F         141.1554  142.6599  170.1288 F       1  UNL1       -0.1659
@<TRIPOS>BOND
     1     7     8    2
     2     8     9   am
     3     9     1    1
     4     1     2    1
     5     2     3    1
     6     3     4    1
     7     4    25    1
     8    25    26    1
     9    26    27   ar
    10    27    28   ar
    11    28    29   ar
    12    29    31    1
    13    31    32   ar
    14    32    33   ar
    15    33    34   ar
    16    34    37    1
    17    37    38    1
    18    37    39    1
    19    37    40    1
    20    34    35   ar
    21    35    36   ar
    22    29    30   ar
    23     4     5    1
    24     5     6    1
    25     8    10   am
    26    10    13    1
    27    13    14    1
    28    14    15    1
    29    15    16    1
    30    16    17    1
    31    17    18    1
    32    18    19    1
    33    19    20    1
    34    19    21    1
    35    19    22    1
    36    17    23    1
    37     6     1    1
    38    22    13    1
    39    30    26   ar
    40    23    13    1
    41    36    31   ar
    42    21    15    1
    43     9    11    1
    44    10    12    1
    45    20    24    1
@<TRIPOS>MOLECULE
*****
 40 45 0 0 0
SMALL
GASTEIGER

@<TRIPOS>ATOM
      1 C         142.9149  139.3749  157.9835 C.3     1  UNL1        0.0758
      2 C         142.9228  139.2277  159.4763 C.3     1  UNL1        0.0370
      3 C         142.1846  140.2148  160.3311 C.3     1  UNL1        0.0741
      4 N         141.4385  141.3491  159.6932 N.3     1  UNL1       -0.2688
      5 C         141.4307  141.4963  158.2005 C.3     1  UNL1        0.0741
      6 C         142.1689  140.5092  157.3456 C.3     1  UNL1        0.0370
      7 O         141.4641  137.0247  156.8124 O.2     1  UNL1       -0.2528
      8 C         142.9277  137.2127  156.5431 C.2     1  UNL1        0.3006
      9 N         143.6531  138.3879  157.1286 N.am    1  UNL1       -0.2905
     10 N         143.6659  136.2257  155.6882 N.am    1  UNL1       -0.2920
     11 H         144.6137  138.5114  156.9519 H       1  UNL1        0.1509
     12 H         144.6265  136.3492  155.5114 H       1  UNL1        0.1508
     13 C         142.9405  135.0505  155.1026 C.3     1  UNL1        0.0604
     14 C         142.9073  133.7455  155.8414 C.3     1  UNL1        0.0182
     15 C         142.1819  132.5705  155.2558 C.3     1  UNL1        0.0039
     16 C         141.4897  132.7004  153.9315 C.3     1  UNL1        0.0003
     17 C         141.5228  134.0054  153.1927 C.3     1  UNL1        0.0039
     18 C         143.2191  134.4441  155.9747 C.3     1  UNL1        0.0270
     19 C         143.5996  133.6156  157.1658 C.3     1  UNL1        0.0899
     20 O         144.2918  133.4857  158.4901 O.3     1  UNL1       -0.3867
     21 C         142.8742  132.4406  156.5802 C.3     1  UNL1        0.0270
     22 C         143.6327  134.9206  156.4270 C.3     1  UNL1        0.0449
     23 C         142.2482  135.1805  153.7783 C.3     1  UNL1        0.0182
     24 H         144.1741  132.5847  158.8295 H       1  UNL1        0.2102
     25 C         140.7003  142.3361  160.5481 C.3     1  UNL1        0.1007
     26 C         141.0518  142.4821  161.9990 C.ar    1  UNL1        0.0129
     27 C         142.0682  143.4264  162.5693 C.ar    1  UNL1        0.0176
     28 C         142.0932  143.2374  164.0571 C.ar    1  UNL1        0.0799
     29 N         141.0922  142.1763  164.4064 N.ar    1  UNL1       -0.3038
     30 C         140.4486  141.7095  163.1344 C.ar    1  UNL1        0.0772
     31 C         140.7881  141.6707  165.7855 C.ar    1  UNL1        0.0640
     32 C         141.1427  142.5005  166.9837 C.ar    1  UNL1        0.0175
     33 C         140.8387  141.9949  168.3627 C.ar    1  UNL1        0.0053
     34 C         140.1800  140.6594  168.5436 C.ar    1  UNL1        0.0715
     35 C         139.8254  139.8296  167.3454 C.ar    1  UNL1        0.0053
     36 C         140.1295  140.3352  165.9664 C.ar    1  UNL1        0.0175
     37 C         139.8759  140.1538  169.9228 C.3     1  UNL1        0.4186
     38 F         139.5719  139.6481  171.3018 F       1  UNL1       -0.1659
     39 F         141.1101  139.3022  169.8826 F       1  UNL1       -0.1659
     40 F         138.6418  141.0053  169.9628 F       1  UNL1       -0.1659
@<TRIPOS>BOND
     1     7     8    2
     2     8     9   am
     3     9     1    1
     4     1     2    1
     5     2     3    1
     6     3     4    1
     7     4    25    1
     8    25    26    1
     9    26    27   ar
    10    27    28   ar
    11    28    29   ar
    12    29    31    1
    13    31    32   ar
    14    32    33   ar
    15    33    34   ar
    16    34    37    1
    17    37    38    1
    18    37    39    1
    19    37    40    1
    20    34    35   ar
    21    35    36   ar
    22    29    30   ar
    23     4     5    1
    24     5     6    1
    25     8    10   am
    26    10    13    1
    27    13    14    1
    28    14    15    1
    29    15    16    1
    30    16    17    1
    31    17    18    1
    32    18    19    1
    33    19    20    1
    34    19    21    1
    35    19    22    1
    36    17    23    1
    37     6     1    1
    38    22    13    1
    39    30    26   ar
    40    23    13    1
    41    36    31   ar
    42    21    15    1
    43     9    11    1
    44    10    12    1
    45    20    24    1
@<TRIPOS>MOLECULE
*****
 40 45 0 0 0
SMALL
GASTEIGER

@<TRIPOS>ATOM
      1 C         138.9280  142.0642  157.5566 C.3     1  UNL1        0.0758
      2 C         137.5681  141.8754  156.9523 C.3     1  UNL1        0.0370
      3 C         137.2828  140.6673  156.1103 C.3     1  UNL1        0.0741
      4 N         138.3573  139.6480  155.8725 N.3     1  UNL1       -0.2688
      5 C         139.7171  139.8368  156.4767 C.3     1  UNL1        0.0741
      6 C         140.0025  141.0450  157.3188 C.3     1  UNL1        0.0370
      7 O         138.6758  141.9055  160.5418 O.2     1  UNL1       -0.2528
      8 C         139.0873  143.1929  159.8913 C.2     1  UNL1        0.3006
      9 N         139.2133  143.2723  158.3986 N.am    1  UNL1       -0.2905
     10 N         139.3726  144.4010  160.7333 N.am    1  UNL1       -0.2920
     11 H         139.4834  144.1173  157.9716 H       1  UNL1        0.1509
     12 H         139.6427  145.2460  160.3063 H       1  UNL1        0.1508
     13 C         139.2466  144.3217  162.2259 C.3     1  UNL1        0.0604
     14 C         140.4651  144.4582  163.0898 C.3     1  UNL1        0.0182
     15 C         140.3390  144.3789  164.5824 C.3     1  UNL1        0.0039
     16 C         138.9944  144.1630  165.2110 C.3     1  UNL1        0.0003
     17 C         137.7758  144.0264  164.3471 C.3     1  UNL1        0.0039
     18 C         140.3300  144.4707  162.3253 C.3     1  UNL1        0.0270
     19 C         141.8098  144.6741  162.4612 C.3     1  UNL1        0.0899
     20 O         143.1545  144.8901  161.8325 O.3     1  UNL1       -0.3867
     21 C         141.6837  144.5948  163.9537 C.3     1  UNL1        0.0270
     22 C         140.5912  144.5376  161.5973 C.3     1  UNL1        0.0449
     23 C         137.9019  144.1058  162.8546 C.3     1  UNL1        0.0182
     24 H         143.8289  144.9567  162.5265 H       1  UNL1        0.2102
     25 C         138.0719  138.4399  155.0304 C.3     1  UNL1        0.1007
     26 C         139.1549  137.4358  154.7680 C.ar    1  UNL1        0.0129
     27 C         139.7582  137.1186  153.4317 C.ar    1  UNL1        0.0176
     28 C         140.8009  136.0593  153.6336 C.ar    1  UNL1        0.0799
     29 N         140.8421  135.7219  155.0945 N.ar    1  UNL1       -0.3038
     30 C         139.8248  136.5726  155.7956 C.ar    1  UNL1        0.0772
     31 C         141.7425  134.7112  155.7410 C.ar    1  UNL1        0.0640
     32 C         141.5755  133.2526  155.4334 C.ar    1  UNL1        0.0175
     33 C         142.4759  132.2420  156.0798 C.ar    1  UNL1        0.0053
     34 C         143.5432  132.6900  157.0338 C.ar    1  UNL1        0.0715
     35 C         143.7101  134.1486  157.3414 C.ar    1  UNL1        0.0053
     36 C         142.8098  135.1592  156.6950 C.ar    1  UNL1        0.0175
     37 C         144.4436  131.6793  157.6803 C.3     1  UNL1        0.4186
     38 F         145.3441  130.6687  158.3268 F       1  UNL1       -0.1659
     39 F         145.4075  132.7699  158.0428 F       1  UNL1       -0.1659
     40 F         143.4798  130.5887  157.3178 F       1  UNL1       -0.1659
@<TRIPOS>BOND
     1     7     8    2
     2     8     9   am
     3     9     1    1
     4     1     2    1
     5     2     3    1
     6     3     4    1
     7     4    25    1
     8    25    26    1
     9    26    27   ar
    10    27    28   ar
    11    28    29   ar
    12    29    31    1
    13    31    32   ar
    14    32    33   ar
    15    33    34   ar
    16    34    37    1
    17    37    38    1
    18    37    39    1
    19    37    40    1
    20    34    35   ar
    21    35    36   ar
    22    29    30   ar
    23     4     5    1
    24     5     6    1
    25     8    10   am
    26    10    13    1
    27    13    14    1
    28    14    15    1
    29    15    16    1
    30    16    17    1
    31    17    18    1
    32    18    19    1
    33    19    20    1
    34    19    21    1
    35    19    22    1
    36    17    23    1
    37     6     1    1
    38    22    13    1
    39    30    26   ar
    40    23    13    1
    41    36    31   ar
    42    21    15    1
    43     9    11    1
    44    10    12    1
    45    20    24    1
@<TRIPOS>MOLECULE
*****
 40 45 0 0 0
SMALL
GASTEIGER

@<TRIPOS>ATOM
      1 C         142.3022  138.6658  163.3101 C.3     1  UNL1        0.0758
      2 C         143.4942  139.2094  162.5797 C.3     1  UNL1        0.0370
      3 C         143.4355  139.4120  161.0946 C.3     1  UNL1        0.0741
      4 N         142.1848  139.0710  160.3399 N.3     1  UNL1       -0.2688
      5 C         140.9928  138.5274  161.0704 C.3     1  UNL1        0.0741
      6 C         141.0515  138.3248  162.5555 C.3     1  UNL1        0.0370
      7 O         141.9756  141.0070  165.1574 O.2     1  UNL1       -0.2528
      8 C         142.1975  139.6338  165.7189 C.2     1  UNL1        0.3006
      9 N         142.3608  138.4632  164.7952 N.am    1  UNL1       -0.2905
     10 N         142.2562  139.4312  167.2040 N.am    1  UNL1       -0.2920
     11 H         142.5065  137.5620  165.1637 H       1  UNL1        0.1509
     12 H         142.4018  138.5300  167.5724 H       1  UNL1        0.1508
     13 C         142.0929  140.6018  168.1277 C.3     1  UNL1        0.0604
     14 C         140.7568  140.8883  168.7463 C.3     1  UNL1        0.0182
     15 C         140.5936  142.0589  169.6700 C.3     1  UNL1        0.0039
     16 C         141.7664  142.9429  169.9749 C.3     1  UNL1        0.0003
     17 C         143.1024  142.6564  169.3563 C.3     1  UNL1        0.0039
     18 C         141.0325  140.3492  168.2602 C.3     1  UNL1        0.0270
     19 C         139.5840  140.0043  168.4414 C.3     1  UNL1        0.0899
     20 O         138.4112  139.1203  168.1364 O.3     1  UNL1       -0.3867
     21 C         139.4207  141.1748  169.3650 C.3     1  UNL1        0.0270
     22 C         140.9200  139.7178  167.8227 C.3     1  UNL1        0.0449
     23 C         143.2657  141.4858  168.4326 C.3     1  UNL1        0.0182
     24 H         137.6306  139.4426  168.6136 H       1  UNL1        0.2102
     25 C         142.1262  139.2736  158.8548 C.3     1  UNL1        0.1007
     26 C         142.0045  138.0905  157.9407 C.ar    1  UNL1        0.0129
     27 C         141.0093  137.9336  156.8295 C.ar    1  UNL1        0.0176
     28 C         141.2464  136.6028  156.1793 C.ar    1  UNL1        0.0799
     29 N         142.3883  135.9372  156.8887 N.ar    1  UNL1       -0.3038
     30 C         142.8568  136.8567  157.9773 C.ar    1  UNL1        0.0772
     31 C         142.9610  134.5889  156.5661 C.ar    1  UNL1        0.0640
     32 C         143.8332  133.8863  157.5640 C.ar    1  UNL1        0.0175
     33 C         144.4059  132.5381  157.2414 C.ar    1  UNL1        0.0053
     34 C         144.1065  131.8924  155.9210 C.ar    1  UNL1        0.0715
     35 C         143.2343  132.5951  154.9231 C.ar    1  UNL1        0.0053
     36 C         142.6616  133.9433  155.2458 C.ar    1  UNL1        0.0175
     37 C         144.6793  130.5441  155.5984 C.3     1  UNL1        0.4186
     38 F         145.2520  129.1958  155.2758 F       1  UNL1       -0.1659
     39 F         144.9399  130.3060  157.0562 F       1  UNL1       -0.1659
     40 F         144.4186  130.7822  154.1406 F       1  UNL1       -0.1659
@<TRIPOS>BOND
     1     7     8    2
     2     8     9   am
     3     9     1    1
     4     1     2    1
     5     2     3    1
     6     3     4    1
     7     4    25    1
     8    25    26    1
     9    26    27   ar
    10    27    28   ar
    11    28    29   ar
    12    29    31    1
    13    31    32   ar
    14    32    33   ar
    15    33    34   ar
    16    34    37    1
    17    37    38    1
    18    37    39    1
    19    37    40    1
    20    34    35   ar
    21    35    36   ar
    22    29    30   ar
    23     4     5    1
    24     5     6    1
    25     8    10   am
    26    10    13    1
    27    13    14    1
    28    14    15    1
    29    15    16    1
    30    16    17    1
    31    17    18    1
    32    18    19    1
    33    19    20    1
    34    19    21    1
    35    19    22    1
    36    17    23    1
    37     6     1    1
    38    22    13    1
    39    30    26   ar
    40    23    13    1
    41    36    31   ar
    42    21    15    1
    43     9    11    1
    44    10    12    1
    45    20    24    1
@<TRIPOS>MOLECULE
*****
 40 45 0 0 0
SMALL
GASTEIGER

@<TRIPOS>ATOM
      1 C         143.0586  139.9844  157.8926 C.3     1  UNL1        0.0758
      2 C         143.4148  140.0421  159.3486 C.3     1  UNL1        0.0370
      3 C         142.7313  141.0277  160.2494 C.3     1  UNL1        0.0741
      4 N         141.6917  141.9557  159.6942 N.3     1  UNL1       -0.2688
      5 C         141.3356  141.8980  158.2383 C.3     1  UNL1        0.0741
      6 C         142.0191  140.9123  157.3375 C.3     1  UNL1        0.0370
      7 O         142.0298  137.1736  157.6899 O.2     1  UNL1       -0.2528
      8 C         143.2276  137.5933  156.8905 C.2     1  UNL1        0.3006
      9 N         143.7420  138.9988  156.9919 N.am    1  UNL1       -0.2905
     10 N         143.9110  136.6077  155.9897 N.am    1  UNL1       -0.2920
     11 H         144.5282  139.2743  156.4672 H       1  UNL1        0.1509
     12 H         144.6972  136.8832  155.4650 H       1  UNL1        0.1508
     13 C         143.3966  135.2023  155.8883 C.3     1  UNL1        0.0604
     14 C         142.5688  134.7900  154.7073 C.3     1  UNL1        0.0182
     15 C         142.0544  133.3846  154.6060 C.3     1  UNL1        0.0039
     16 C         142.3679  132.3915  155.6855 C.3     1  UNL1        0.0003
     17 C         143.1957  132.8038  156.8665 C.3     1  UNL1        0.0039
     18 C         142.9142  135.4478  154.9328 C.3     1  UNL1        0.0270
     19 C         142.2553  135.7831  153.6277 C.3     1  UNL1        0.0899
     20 O         141.9419  136.7762  152.5481 O.3     1  UNL1       -0.3867
     21 C         141.7409  134.3777  153.5264 C.3     1  UNL1        0.0270
     22 C         143.0831  136.1954  154.8087 C.3     1  UNL1        0.0449
     23 C         143.7100  134.2092  156.9679 C.3     1  UNL1        0.0182
     24 H         141.4018  136.3504  151.8640 H       1  UNL1        0.2102
     25 C         141.0083  142.9413  160.5950 C.3     1  UNL1        0.1007
     26 C         140.1945  142.4558  161.7577 C.ar    1  UNL1        0.0129
     27 C         138.7202  142.1795  161.7479 C.ar    1  UNL1        0.0176
     28 C         138.3266  141.7143  163.1185 C.ar    1  UNL1        0.0799
     29 N         139.5576  141.7030  163.9755 N.ar    1  UNL1       -0.3038
     30 C         140.7120  142.1613  163.1345 C.ar    1  UNL1        0.0772
     31 C         139.6228  141.3036  165.4198 C.ar    1  UNL1        0.0640
     32 C         140.3670  142.1592  166.4018 C.ar    1  UNL1        0.0175
     33 C         140.4322  141.7598  167.8461 C.ar    1  UNL1        0.0053
     34 C         139.7532  140.5048  168.3085 C.ar    1  UNL1        0.0715
     35 C         139.0090  139.6492  167.3266 C.ar    1  UNL1        0.0053
     36 C         138.9438  140.0486  165.8823 C.ar    1  UNL1        0.0175
     37 C         139.8183  140.1053  169.7529 C.3     1  UNL1        0.4186
     38 F         139.8836  139.7058  171.1973 F       1  UNL1       -0.1659
     39 F         141.1581  139.4730  169.5176 F       1  UNL1       -0.1659
     40 F         138.4787  140.7376  169.9882 F       1  UNL1       -0.1659
@<TRIPOS>BOND
     1     7     8    2
     2     8     9   am
     3     9     1    1
     4     1     2    1
     5     2     3    1
     6     3     4    1
     7     4    25    1
     8    25    26    1
     9    26    27   ar
    10    27    28   ar
    11    28    29   ar
    12    29    31    1
    13    31    32   ar
    14    32    33   ar
    15    33    34   ar
    16    34    37    1
    17    37    38    1
    18    37    39    1
    19    37    40    1
    20    34    35   ar
    21    35    36   ar
    22    29    30   ar
    23     4     5    1
    24     5     6    1
    25     8    10   am
    26    10    13    1
    27    13    14    1
    28    14    15    1
    29    15    16    1
    30    16    17    1
    31    17    18    1
    32    18    19    1
    33    19    20    1
    34    19    21    1
    35    19    22    1
    36    17    23    1
    37     6     1    1
    38    22    13    1
    39    30    26   ar
    40    23    13    1
    41    36    31   ar
    42    21    15    1
    43     9    11    1
    44    10    12    1
    45    20    24    1
@<TRIPOS>MOLECULE
*****
 40 45 0 0 0
SMALL
GASTEIGER

@<TRIPOS>ATOM
      1 C         143.3690  139.0067  164.2749 C.3     1  UNL1        0.0758
      2 C         144.2581  139.8532  163.4129 C.3     1  UNL1        0.0370
      3 C         144.1321  139.7936  161.9194 C.3     1  UNL1        0.0741
      4 N         143.1170  138.8876  161.2878 N.3     1  UNL1       -0.2688
      5 C         142.2279  138.0412  162.1498 C.3     1  UNL1        0.0741
      6 C         142.3539  138.1007  163.6434 C.3     1  UNL1        0.0370
      7 O         141.2993  140.4491  165.8984 O.2     1  UNL1       -0.2528
      8 C         142.4601  139.7875  166.5802 C.2     1  UNL1        0.3006
      9 N         143.4950  139.0662  165.7683 N.am    1  UNL1       -0.2905
     10 N         142.5861  139.8470  168.0737 N.am    1  UNL1       -0.2920
     11 H         144.2568  138.6320  166.2158 H       1  UNL1        0.1509
     12 H         143.3479  139.4127  168.5211 H       1  UNL1        0.1508
     13 C         141.5512  140.5682  168.8855 C.3     1  UNL1        0.0604
     14 C         141.9094  141.8371  169.6007 C.3     1  UNL1        0.0182
     15 C         140.8746  142.5582  170.4125 C.3     1  UNL1        0.0039
     16 C         139.4815  142.0105  170.5090 C.3     1  UNL1        0.0003
     17 C         139.1233  140.7416  169.7938 C.3     1  UNL1        0.0039
     18 C         142.2914  141.3360  169.1469 C.3     1  UNL1        0.0270
     19 C         143.3025  142.3848  169.5041 C.3     1  UNL1        0.0899
     20 O         144.6956  142.9325  169.4076 O.3     1  UNL1       -0.3867
     21 C         142.2677  143.1059  170.3159 C.3     1  UNL1        0.0270
     22 C         142.9443  141.1159  168.7889 C.3     1  UNL1        0.0449
     23 C         140.1581  140.0205  168.9820 C.3     1  UNL1        0.0182
     24 H         144.7577  143.7511  169.9243 H       1  UNL1        0.2102
     25 C         142.9911  138.8281  159.7943 C.3     1  UNL1        0.1007
     26 C         143.0676  140.0883  158.9844 C.ar    1  UNL1        0.0129
     27 C         144.2608  140.5697  158.2133 C.ar    1  UNL1        0.0176
     28 C         143.8950  141.8673  157.5556 C.ar    1  UNL1        0.0799
     29 N         142.4758  142.1879  157.9203 N.ar    1  UNL1       -0.3038
     30 C         141.9644  141.0884  158.8033 C.ar    1  UNL1        0.0772
     31 C         141.7035  143.3958  157.4793 C.ar    1  UNL1        0.0640
     32 C         140.2874  143.2492  157.0066 C.ar    1  UNL1        0.0175
     33 C         139.5152  144.4572  156.5657 C.ar    1  UNL1        0.0053
     34 C         140.1589  145.8116  156.5975 C.ar    1  UNL1        0.0715
     35 C         141.5749  145.9582  157.0702 C.ar    1  UNL1        0.0053
     36 C         142.3472  144.7503  157.5111 C.ar    1  UNL1        0.0175
     37 C         139.3866  147.0197  156.1566 C.3     1  UNL1        0.4186
     38 F         138.6143  148.2276  155.7156 F       1  UNL1       -0.1659
     39 F         139.5546  146.6044  154.7250 F       1  UNL1       -0.1659
     40 F         139.2187  147.4348  157.5881 F       1  UNL1       -0.1659
@<TRIPOS>BOND
     1     7     8    2
     2     8     9   am
     3     9     1    1
     4     1     2    1
     5     2     3    1
     6     3     4    1
     7     4    25    1
     8    25    26    1
     9    26    27   ar
    10    27    28   ar
    11    28    29   ar
    12    29    31    1
    13    31    32   ar
    14    32    33   ar
    15    33    34   ar
    16    34    37    1
    17    37    38    1
    18    37    39    1
    19    37    40    1
    20    34    35   ar
    21    35    36   ar
    22    29    30   ar
    23     4     5    1
    24     5     6    1
    25     8    10   am
    26    10    13    1
    27    13    14    1
    28    14    15    1
    29    15    16    1
    30    16    17    1
    31    17    18    1
    32    18    19    1
    33    19    20    1
    34    19    21    1
    35    19    22    1
    36    17    23    1
    37     6     1    1
    38    22    13    1
    39    30    26   ar
    40    23    13    1
    41    36    31   ar
    42    21    15    1
    43     9    11    1
    44    10    12    1
    45    20    24    1
