@<TRIPOS>MOLECULE
*****
 29 32 0 0 0
SMALL
GASTEIGER

@<TRIPOS>ATOM
      1 C         138.9804  144.6501  162.7431 C.3     1  UNL1        0.0038
      2 C         139.4731  144.2845  163.2520 C.3     1  UNL1        0.0413
      3 C         138.0571  144.3820  163.7372 C.3     1  UNL1        0.0038
      4 C         139.6057  143.6025  164.5813 C.3     1  UNL1        0.0940
      5 N         140.9375  143.0716  165.0224 N.pl3   1  UNL1       -0.2941
      6 C         142.1367  143.2227  164.1341 C.3     1  UNL1        0.0943
      7 C         142.0040  143.9047  162.8047 C.3     1  UNL1        0.0484
      8 C         140.6723  144.4356  162.3637 C.3     1  UNL1        0.1301
      9 N         141.7765  144.6591  161.3733 N.am    1  UNL1       -0.2838
     10 C         141.1988  145.3755  160.1888 C.2     1  UNL1        0.3068
     11 O         141.9504  145.7984  158.9615 O.2     1  UNL1       -0.2524
     12 N         139.7375  145.5948  160.4470 N.am    1  UNL1       -0.2384
     13 C         139.4121  145.0139  161.7912 C.2     1  UNL1        0.2452
     14 O         138.6954  145.0127  162.1401 O.2     1  UNL1       -0.2730
     15 H         142.7155  144.3839  161.4817 H       1  UNL1        0.1513
     16 H         139.1034  146.0416  159.8408 H       1  UNL1        0.1591
     17 C         141.0701  142.3895  166.3518 C.ar    1  UNL1        0.1173
     18 C         140.4158  142.9793  167.5659 C.ar    1  UNL1        0.0368
     19 C         140.5484  142.2972  168.8953 C.ar    1  UNL1        0.0756
     20 C         141.3353  141.0254  169.0106 C.ar    1  UNL1        0.0231
     21 C         141.9896  140.4357  167.7964 C.ar    1  UNL1        0.0856
     22 C         142.8220  139.2028  167.6038 C.ar    1  UNL1        0.1181
     23 N         143.2038  139.1228  166.1555 N.ar    1  UNL1       -0.2220
     24 C         142.6074  140.3063  165.4529 C.ar    1  UNL1        0.1837
     25 N         141.8570  141.1177  166.4671 N.ar    1  UNL1       -0.2761
     26 C         139.8941  142.8870  170.1094 C.3     1  UNL1        0.4187
     27 F         139.2398  143.4767  171.3235 F       1  UNL1       -0.1659
     28 F         139.0826  141.6369  170.2793 F       1  UNL1       -0.1659
     29 F         140.7055  144.1370  169.9395 F       1  UNL1       -0.1659
@<TRIPOS>BOND
     1     1     2    1
     2     2     3    1
     3     2     4    1
     4     4     5    1
     5     5    17    1
     6    17    18   ar
     7    18    19   ar
     8    19    26    1
     9    26    27    1
    10    26    28    1
    11    26    29    1
    12    19    20   ar
    13    20    21   ar
    14    21    22   ar
    15    22    23   ar
    16    23    24   ar
    17    24    25   ar
    18     5     6    1
    19     6     7    1
    20     8     7    1
    21     8     9    1
    22     9    10   am
    23    10    11    2
    24    10    12   am
    25    12    13   am
    26    13    14    2
    27     8     2    1
    28    25    17   ar
    29    13     8    1
    30    25    21   ar
    31     9    15    1
    32    12    16    1
@<TRIPOS>MOLECULE
*****
 29 32 0 0 0
SMALL
GASTEIGER

@<TRIPOS>ATOM
      1 C         142.5595  141.6211  169.8229 C.3     1  UNL1        0.0038
      2 C         142.4278  141.6263  169.0367 C.3     1  UNL1        0.0413
      3 C         142.2545  142.9638  169.6933 C.3     1  UNL1        0.0038
      4 C         142.0545  142.4556  167.8439 C.3     1  UNL1        0.0940
      5 N         141.9632  141.8208  166.4879 N.pl3   1  UNL1       -0.2941
      6 C         142.2452  140.3566  166.3248 C.3     1  UNL1        0.0943
      7 C         142.6185  139.5273  167.5176 C.3     1  UNL1        0.0484
      8 C         142.7097  140.1621  168.8736 C.3     1  UNL1        0.1301
      9 N         143.0182  138.6942  168.8652 N.am    1  UNL1       -0.2838
     10 C         143.3392  138.2799  170.2707 C.2     1  UNL1        0.3068
     11 O         143.7059  136.8967  170.7201 O.2     1  UNL1       -0.2524
     12 N         143.2291  139.4918  171.1478 N.am    1  UNL1       -0.2384
     13 C         142.8401  140.6551  170.2843 C.2     1  UNL1        0.2452
     14 O         142.7231  141.4038  170.5317 O.2     1  UNL1       -0.2730
     15 H         143.0113  138.1059  168.0758 H       1  UNL1        0.1513
     16 H         143.3848  139.5190  172.1195 H       1  UNL1        0.1591
     17 C         141.5899  142.6502  165.2951 C.ar    1  UNL1        0.1173
     18 C         140.1586  143.0378  165.0694 C.ar    1  UNL1        0.0368
     19 C         139.7853  143.8672  163.8765 C.ar    1  UNL1        0.0756
     20 C         140.8434  144.3089  162.9094 C.ar    1  UNL1        0.0231
     21 C         142.2748  143.9212  163.1351 C.ar    1  UNL1        0.0856
     22 C         143.5264  144.2071  162.3595 C.ar    1  UNL1        0.1181
     23 N         144.6732  143.5545  163.0728 N.ar    1  UNL1       -0.2220
     24 C         144.1303  142.8652  164.2894 C.ar    1  UNL1        0.1837
     25 N         142.6480  143.0919  164.3280 N.ar    1  UNL1       -0.2761
     26 C         138.3540  144.2549  163.6508 C.3     1  UNL1        0.4187
     27 F         136.9227  144.6426  163.4252 F       1  UNL1       -0.1659
     28 F         138.4053  143.6465  162.2807 F       1  UNL1       -0.1659
     29 F         138.3027  144.8633  165.0209 F       1  UNL1       -0.1659
@<TRIPOS>BOND
     1     1     2    1
     2     2     3    1
     3     2     4    1
     4     4     5    1
     5     5    17    1
     6    17    18   ar
     7    18    19   ar
     8    19    26    1
     9    26    27    1
    10    26    28    1
    11    26    29    1
    12    19    20   ar
    13    20    21   ar
    14    21    22   ar
    15    22    23   ar
    16    23    24   ar
    17    24    25   ar
    18     5     6    1
    19     6     7    1
    20     8     7    1
    21     8     9    1
    22     9    10   am
    23    10    11    2
    24    10    12   am
    25    12    13   am
    26    13    14    2
    27     8     2    1
    28    25    17   ar
    29    13     8    1
    30    25    21   ar
    31     9    15    1
    32    12    16    1
@<TRIPOS>MOLECULE
*****
 29 32 0 0 0
SMALL
GASTEIGER

@<TRIPOS>ATOM
      1 C         141.6719  140.2015  169.6995 C.3     1  UNL1        0.0038
      2 C         141.6171  140.3360  168.9157 C.3     1  UNL1        0.0413
      3 C         143.0075  140.4711  169.4623 C.3     1  UNL1        0.0038
      4 C         142.3571  140.6917  167.6603 C.3     1  UNL1        0.0940
      5 N         141.6175  140.8050  166.3603 N.pl3   1  UNL1       -0.2941
      6 C         140.1379  140.5627  166.3156 C.3     1  UNL1        0.0943
      7 C         139.3979  140.2071  167.5709 C.3     1  UNL1        0.0484
      8 C         140.1375  140.0937  168.8709 C.3     1  UNL1        0.1301
      9 N         138.6659  139.8244  168.9808 N.am    1  UNL1       -0.2838
     10 C         138.3581  139.5092  170.4146 C.2     1  UNL1        0.3068
     11 O         137.0063  139.1777  170.9738 O.2     1  UNL1       -0.2524
     12 N         139.6394  139.5837  171.1910 N.am    1  UNL1       -0.2384
     13 C         140.7391  139.9449  170.2369 C.2     1  UNL1        0.2452
     14 O         141.5083  140.0410  170.4232 O.2     1  UNL1       -0.2730
     15 H         138.0162  139.8501  168.2415 H       1  UNL1        0.1513
     16 H         139.7407  139.4236  172.1571 H       1  UNL1        0.1591
     17 C         142.3575  141.1606  165.1049 C.ar    1  UNL1        0.1173
     18 C         142.7550  142.5837  164.8462 C.ar    1  UNL1        0.0368
     19 C         143.4950  142.9393  163.5908 C.ar    1  UNL1        0.0756
     20 C         143.8376  141.8719  162.5942 C.ar    1  UNL1        0.0231
     21 C         143.4401  140.4488  162.8530 C.ar    1  UNL1        0.0856
     22 C         143.6387  139.1911  162.0599 C.ar    1  UNL1        0.1181
     23 N         143.0214  138.0583  162.8251 N.ar    1  UNL1       -0.2220
     24 C         142.4413  138.6158  164.0911 C.ar    1  UNL1        0.1837
     25 N         142.7001  140.0932  164.1083 N.ar    1  UNL1       -0.2761
     26 C         143.8925  144.3623  163.3320 C.3     1  UNL1        0.4187
     27 F         144.2899  145.7854  163.0733 F       1  UNL1       -0.1659
     28 F         142.9632  144.8192  164.4173 F       1  UNL1       -0.1659
     29 F         144.8217  143.9055  162.2468 F       1  UNL1       -0.1659
@<TRIPOS>BOND
     1     1     2    1
     2     2     3    1
     3     2     4    1
     4     4     5    1
     5     5    17    1
     6    17    18   ar
     7    18    19   ar
     8    19    26    1
     9    26    27    1
    10    26    28    1
    11    26    29    1
    12    19    20   ar
    13    20    21   ar
    14    21    22   ar
    15    22    23   ar
    16    23    24   ar
    17    24    25   ar
    18     5     6    1
    19     6     7    1
    20     8     7    1
    21     8     9    1
    22     9    10   am
    23    10    11    2
    24    10    12   am
    25    12    13   am
    26    13    14    2
    27     8     2    1
    28    25    17   ar
    29    13     8    1
    30    25    21   ar
    31     9    15    1
    32    12    16    1
@<TRIPOS>MOLECULE
*****
 29 32 0 0 0
SMALL
GASTEIGER

@<TRIPOS>ATOM
      1 C         139.6247  140.0169  167.8622 C.3     1  UNL1        0.0038
      2 C         140.2374  140.2765  167.4233 C.3     1  UNL1        0.0413
      3 C         139.2869  139.3867  166.6784 C.3     1  UNL1        0.0038
      4 C         140.8986  140.2584  166.0771 C.3     1  UNL1        0.0940
      5 N         142.1659  141.0290  165.8534 N.pl3   1  UNL1       -0.2941
      6 C         142.7721  141.8177  166.9761 C.3     1  UNL1        0.0943
      7 C         142.1110  141.8358  168.3224 C.3     1  UNL1        0.0484
      8 C         140.8436  141.0652  168.5460 C.3     1  UNL1        0.1301
      9 N         141.3301  141.8042  169.7573 N.am    1  UNL1       -0.2838
     10 C         140.3671  141.5433  170.8774 C.2     1  UNL1        0.3068
     11 O         140.4680  142.0871  172.2716 O.2     1  UNL1       -0.2524
     12 N         139.2854  140.6430  170.3583 N.am    1  UNL1       -0.2384
     13 C         139.5799  140.3475  168.9174 C.2     1  UNL1        0.2452
     14 O         139.1418  139.8895  168.4340 O.2     1  UNL1       -0.2730
     15 H         142.1394  142.3625  169.8083 H       1  UNL1        0.1513
     16 H         138.5170  140.3053  170.8729 H       1  UNL1        0.1591
     17 C         142.8271  141.0108  164.5071 C.ar    1  UNL1        0.1173
     18 C         142.9933  139.7147  163.7706 C.ar    1  UNL1        0.0368
     19 C         143.6545  139.6966  162.4242 C.ar    1  UNL1        0.0756
     20 C         144.1493  140.9746  161.8144 C.ar    1  UNL1        0.0231
     21 C         143.9830  142.2707  162.5510 C.ar    1  UNL1        0.0856
     22 C         144.3677  143.6785  162.2045 C.ar    1  UNL1        0.1181
     23 N         143.9444  144.5667  163.3367 N.ar    1  UNL1       -0.2220
     24 C         143.2980  143.7078  164.3828 C.ar    1  UNL1        0.1837
     25 N         143.3219  142.2888  163.8972 N.ar    1  UNL1       -0.2761
     26 C         143.8207  138.4005  161.6877 C.3     1  UNL1        0.4187
     27 F         143.9870  137.1044  160.9512 F       1  UNL1       -0.1659
     28 F         143.0704  137.6874  162.7732 F       1  UNL1       -0.1659
     29 F         144.5710  139.1136  160.6022 F       1  UNL1       -0.1659
@<TRIPOS>BOND
     1     1     2    1
     2     2     3    1
     3     2     4    1
     4     4     5    1
     5     5    17    1
     6    17    18   ar
     7    18    19   ar
     8    19    26    1
     9    26    27    1
    10    26    28    1
    11    26    29    1
    12    19    20   ar
    13    20    21   ar
    14    21    22   ar
    15    22    23   ar
    16    23    24   ar
    17    24    25   ar
    18     5     6    1
    19     6     7    1
    20     8     7    1
    21     8     9    1
    22     9    10   am
    23    10    11    2
    24    10    12   am
    25    12    13   am
    26    13    14    2
    27     8     2    1
    28    25    17   ar
    29    13     8    1
    30    25    21   ar
    31     9    15    1
    32    12    16    1
@<TRIPOS>MOLECULE
*****
 29 32 0 0 0
SMALL
GASTEIGER

@<TRIPOS>ATOM
      1 C         139.1677  139.8710  167.4871 C.3     1  UNL1        0.0038
      2 C         139.5455  140.4017  167.0278 C.3     1  UNL1        0.0413
      3 C         138.6749  139.4464  166.2666 C.3     1  UNL1        0.0038
      4 C         139.7791  140.8936  165.6301 C.3     1  UNL1        0.0940
      5 N         140.6972  142.0547  165.3872 N.pl3   1  UNL1       -0.2941
      6 C         141.3817  142.7239  166.5420 C.3     1  UNL1        0.0943
      7 C         141.1482  142.2320  167.9396 C.3     1  UNL1        0.0484
      8 C         140.2301  141.0710  168.1825 C.3     1  UNL1        0.1301
      9 N         140.8414  141.6368  169.4301 N.am    1  UNL1       -0.2838
     10 C         140.3334  140.8424  170.5967 C.2     1  UNL1        0.3068
     11 O         140.6883  141.0656  172.0368 O.2     1  UNL1       -0.2524
     12 N         139.4081  139.7857  170.0702 N.am    1  UNL1       -0.2384
     13 C         139.3442  139.9269  168.5781 C.2     1  UNL1        0.2452
     14 O         138.9149  139.4736  168.0825 O.2     1  UNL1       -0.2730
     15 H         141.4663  142.3961  169.4752 H       1  UNL1        0.1513
     16 H         138.9271  139.1168  170.6092 H       1  UNL1        0.1591
     17 C         140.9307  142.5466  163.9895 C.ar    1  UNL1        0.1173
     18 C         140.3023  143.8290  163.5309 C.ar    1  UNL1        0.0368
     19 C         140.5358  144.3209  162.1332 C.ar    1  UNL1        0.0756
     20 C         141.3978  143.5302  161.1941 C.ar    1  UNL1        0.0231
     21 C         142.0261  142.2477  161.6527 C.ar    1  UNL1        0.0856
     22 C         142.9166  141.2613  160.9570 C.ar    1  UNL1        0.1181
     23 N         143.2334  140.1599  161.9246 N.ar    1  UNL1       -0.2220
     24 C         142.5388  140.4655  163.2184 C.ar    1  UNL1        0.1837
     25 N         141.7926  141.7559  163.0504 N.ar    1  UNL1       -0.2761
     26 C         139.9075  145.6034  161.6746 C.3     1  UNL1        0.4187
     27 F         139.2791  146.8859  161.2160 F       1  UNL1       -0.1659
     28 F         138.9281  145.5289  162.8083 F       1  UNL1       -0.1659
     29 F         140.8868  145.6779  160.5409 F       1  UNL1       -0.1659
@<TRIPOS>BOND
     1     1     2    1
     2     2     3    1
     3     2     4    1
     4     4     5    1
     5     5    17    1
     6    17    18   ar
     7    18    19   ar
     8    19    26    1
     9    26    27    1
    10    26    28    1
    11    26    29    1
    12    19    20   ar
    13    20    21   ar
    14    21    22   ar
    15    22    23   ar
    16    23    24   ar
    17    24    25   ar
    18     5     6    1
    19     6     7    1
    20     8     7    1
    21     8     9    1
    22     9    10   am
    23    10    11    2
    24    10    12   am
    25    12    13   am
    26    13    14    2
    27     8     2    1
    28    25    17   ar
    29    13     8    1
    30    25    21   ar
    31     9    15    1
    32    12    16    1
@<TRIPOS>MOLECULE
*****
 29 32 0 0 0
SMALL
GASTEIGER

@<TRIPOS>ATOM
      1 C         139.2087  139.8814  168.0861 C.3     1  UNL1        0.0038
      2 C         139.7215  140.1481  167.5372 C.3     1  UNL1        0.0413
      3 C         138.7062  139.1807  167.0049 C.3     1  UNL1        0.0038
      4 C         140.1402  140.0970  166.0977 C.3     1  UNL1        0.0940
      5 N         141.3063  140.9143  165.6263 N.pl3   1  UNL1       -0.2941
      6 C         142.0537  141.7827  166.5942 C.3     1  UNL1        0.0943
      7 C         141.6351  141.8339  168.0337 C.3     1  UNL1        0.0484
      8 C         140.4690  141.0166  168.5052 C.3     1  UNL1        0.1301
      9 N         141.1167  141.8341  169.5833 N.am    1  UNL1       -0.2838
     10 C         140.3772  141.5821  170.8637 C.2     1  UNL1        0.3068
     11 O         140.6878  142.1955  172.1967 O.2     1  UNL1       -0.2524
     12 N         139.2723  140.6088  170.5770 N.am    1  UNL1       -0.2384
     13 C         139.3291  140.2593  169.1193 C.2     1  UNL1        0.2452
     14 O         138.8395  139.7590  168.7381 O.2     1  UNL1       -0.2730
     15 H         141.8912  142.4313  169.4703 H       1  UNL1        0.1513
     16 H         138.6238  140.2605  171.2308 H       1  UNL1        0.1591
     17 C         141.7249  140.8630  164.1867 C.ar    1  UNL1        0.1173
     18 C         142.4769  139.6742  163.6662 C.ar    1  UNL1        0.0368
     19 C         142.8955  139.6230  162.2266 C.ar    1  UNL1        0.0756
     20 C         142.5621  140.7607  161.3077 C.ar    1  UNL1        0.0231
     21 C         141.8100  141.9496  161.8283 C.ar    1  UNL1        0.0856
     22 C         141.3434  143.2113  161.1648 C.ar    1  UNL1        0.1181
     23 N         140.6364  144.0422  162.1941 N.ar    1  UNL1       -0.2220
     24 C         140.6661  143.2941  163.4938 C.ar    1  UNL1        0.1837
     25 N         141.3915  142.0008  163.2678 N.ar    1  UNL1       -0.2761
     26 C         143.6475  138.4341  161.7061 C.3     1  UNL1        0.4187
     27 F         144.3995  137.2452  161.1856 F       1  UNL1       -0.1659
     28 F         142.7578  137.5238  162.4997 F       1  UNL1       -0.1659
     29 F         144.5373  139.3443  160.9125 F       1  UNL1       -0.1659
@<TRIPOS>BOND
     1     1     2    1
     2     2     3    1
     3     2     4    1
     4     4     5    1
     5     5    17    1
     6    17    18   ar
     7    18    19   ar
     8    19    26    1
     9    26    27    1
    10    26    28    1
    11    26    29    1
    12    19    20   ar
    13    20    21   ar
    14    21    22   ar
    15    22    23   ar
    16    23    24   ar
    17    24    25   ar
    18     5     6    1
    19     6     7    1
    20     8     7    1
    21     8     9    1
    22     9    10   am
    23    10    11    2
    24    10    12   am
    25    12    13   am
    26    13    14    2
    27     8     2    1
    28    25    17   ar
    29    13     8    1
    30    25    21   ar
    31     9    15    1
    32    12    16    1
@<TRIPOS>MOLECULE
*****
 29 32 0 0 0
SMALL
GASTEIGER

@<TRIPOS>ATOM
      1 C         139.2787  139.9223  167.9698 C.3     1  UNL1        0.0038
      2 C         139.6151  140.3848  167.4145 C.3     1  UNL1        0.0413
      3 C         138.8411  139.2269  166.8573 C.3     1  UNL1        0.0038
      4 C         139.8236  140.6142  165.9469 C.3     1  UNL1        0.0940
      5 N         140.6402  141.7821  165.4789 N.pl3   1  UNL1       -0.2941
      6 C         141.2484  142.7207  166.4785 C.3     1  UNL1        0.0943
      7 C         141.0399  142.4913  167.9461 C.3     1  UNL1        0.0484
      8 C         140.2232  141.3234  168.4141 C.3     1  UNL1        0.1301
      9 N         140.7662  142.1725  169.5251 N.am    1  UNL1       -0.2838
     10 C         140.3137  141.5786  170.8260 C.2     1  UNL1        0.3068
     11 O         140.6285  142.1078  172.1937 O.2     1  UNL1       -0.2524
     12 N         139.4911  140.3623  170.5191 N.am    1  UNL1       -0.2384
     13 C         139.4352  140.2046  169.0284 C.2     1  UNL1        0.2452
     14 O         139.0536  139.6276  168.6322 O.2     1  UNL1       -0.2730
     15 H         141.3220  142.9782  169.4190 H       1  UNL1        0.1513
     16 H         139.0630  139.7714  171.1800 H       1  UNL1        0.1591
     17 C         140.8487  142.0115  164.0112 C.ar    1  UNL1        0.1173
     18 C         142.2392  142.0800  163.4529 C.ar    1  UNL1        0.0368
     19 C         142.4477  142.3093  161.9852 C.ar    1  UNL1        0.0756
     20 C         141.2657  142.4702  161.0759 C.ar    1  UNL1        0.0231
     21 C         139.8751  142.4016  161.6343 C.ar    1  UNL1        0.0856
     22 C         138.5269  142.5232  160.9881 C.ar    1  UNL1        0.1181
     23 N         137.4853  142.3690  162.0562 N.ar    1  UNL1       -0.2220
     24 C         138.1897  142.1521  163.3627 C.ar    1  UNL1        0.1837
     25 N         139.6667  142.1723  163.1019 N.ar    1  UNL1       -0.2761
     26 C         143.8382  142.3779  161.4269 C.3     1  UNL1        0.4187
     27 F         145.2288  142.4464  160.8686 F       1  UNL1       -0.1659
     28 F         143.3898  143.4116  160.4369 F       1  UNL1       -0.1659
     29 F         144.2867  141.3441  162.4169 F       1  UNL1       -0.1659
@<TRIPOS>BOND
     1     1     2    1
     2     2     3    1
     3     2     4    1
     4     4     5    1
     5     5    17    1
     6    17    18   ar
     7    18    19   ar
     8    19    26    1
     9    26    27    1
    10    26    28    1
    11    26    29    1
    12    19    20   ar
    13    20    21   ar
    14    21    22   ar
    15    22    23   ar
    16    23    24   ar
    17    24    25   ar
    18     5     6    1
    19     6     7    1
    20     8     7    1
    21     8     9    1
    22     9    10   am
    23    10    11    2
    24    10    12   am
    25    12    13   am
    26    13    14    2
    27     8     2    1
    28    25    17   ar
    29    13     8    1
    30    25    21   ar
    31     9    15    1
    32    12    16    1
@<TRIPOS>MOLECULE
*****
 29 32 0 0 0
SMALL
GASTEIGER

@<TRIPOS>ATOM
      1 C         142.5491  139.5195  168.4412 C.3     1  UNL1        0.0038
      2 C         142.0988  139.7488  167.8246 C.3     1  UNL1        0.0413
      3 C         143.1557  138.7457  167.4686 C.3     1  UNL1        0.0038
      4 C         141.8324  139.5999  166.3561 C.3     1  UNL1        0.0940
      5 N         140.7291  140.3848  165.7105 N.pl3   1  UNL1       -0.2941
      6 C         139.8922  141.3186  166.5336 C.3     1  UNL1        0.0943
      7 C         140.1586  141.4676  168.0022 C.3     1  UNL1        0.0484
      8 C         141.2619  140.6826  168.6477 C.3     1  UNL1        0.1301
      9 N         140.5122  141.5730  169.5940 N.am    1  UNL1       -0.2838
     10 C         141.1117  141.4081  170.9590 C.2     1  UNL1        0.3068
     11 O         140.6688  142.1118  172.2074 O.2     1  UNL1       -0.2524
     12 N         142.2319  140.4157  170.8565 N.am    1  UNL1       -0.2384
     13 C         142.3247  139.9674  169.4280 C.2     1  UNL1        0.2452
     14 O         142.8471  139.4414  169.1350 O.2     1  UNL1       -0.2730
     15 H         139.7590  142.1623  169.3601 H       1  UNL1        0.1513
     16 H         142.8055  140.1120  171.5968 H       1  UNL1        0.1591
     17 C         140.4628  140.2358  164.2419 C.ar    1  UNL1        0.1173
     18 C         139.3002  139.4137  163.7701 C.ar    1  UNL1        0.0368
     19 C         139.0339  139.2648  162.3014 C.ar    1  UNL1        0.0756
     20 C         139.9301  139.9379  161.3046 C.ar    1  UNL1        0.0231
     21 C         141.0927  140.7601  161.7764 C.ar    1  UNL1        0.0856
     22 C         142.1408  141.5351  161.0344 C.ar    1  UNL1        0.1181
     23 N         143.0549  142.1630  162.0443 N.ar    1  UNL1       -0.2220
     24 C         142.5717  141.7761  163.4106 C.ar    1  UNL1        0.1837
     25 N         141.3590  140.9090  163.2450 N.ar    1  UNL1       -0.2761
     26 C         137.8713  138.4427  161.8296 C.3     1  UNL1        0.4187
     27 F         136.7088  137.6206  161.3578 F       1  UNL1       -0.1659
     28 F         137.4668  139.5482  160.9001 F       1  UNL1       -0.1659
     29 F         138.2759  137.3372  162.7592 F       1  UNL1       -0.1659
@<TRIPOS>BOND
     1     1     2    1
     2     2     3    1
     3     2     4    1
     4     4     5    1
     5     5    17    1
     6    17    18   ar
     7    18    19   ar
     8    19    26    1
     9    26    27    1
    10    26    28    1
    11    26    29    1
    12    19    20   ar
    13    20    21   ar
    14    21    22   ar
    15    22    23   ar
    16    23    24   ar
    17    24    25   ar
    18     5     6    1
    19     6     7    1
    20     8     7    1
    21     8     9    1
    22     9    10   am
    23    10    11    2
    24    10    12   am
    25    12    13   am
    26    13    14    2
    27     8     2    1
    28    25    17   ar
    29    13     8    1
    30    25    21   ar
    31     9    15    1
    32    12    16    1
@<TRIPOS>MOLECULE
*****
 29 32 0 0 0
SMALL
GASTEIGER

@<TRIPOS>ATOM
      1 C         141.1664  142.3895  169.6561 C.3     1  UNL1        0.0038
      2 C         141.1056  142.2130  168.8811 C.3     1  UNL1        0.0413
      3 C         140.3346  143.4325  169.2915 C.3     1  UNL1        0.0038
      4 C         140.5104  142.6015  167.5602 C.3     1  UNL1        0.0940
      5 N         140.7999  141.7828  166.3372 N.pl3   1  UNL1       -0.2941
      6 C         141.6846  140.5754  166.4350 C.3     1  UNL1        0.0943
      7 C         142.2798  140.1869  167.7559 C.3     1  UNL1        0.0484
      8 C         141.9903  141.0057  168.9789 C.3     1  UNL1        0.1301
      9 N         142.8887  139.8309  169.2298 N.am    1  UNL1       -0.2838
     10 C         143.2454  139.8228  170.6867 C.2     1  UNL1        0.3068
     11 O         144.1254  138.8210  171.3735 O.2     1  UNL1       -0.2524
     12 N         142.5674  140.9927  171.3364 N.am    1  UNL1       -0.2384
     13 C         141.7918  141.7237  170.2809 C.2     1  UNL1        0.2452
     14 O         141.3514  142.3787  170.3923 O.2     1  UNL1       -0.2730
     15 H         143.1912  139.1795  168.5564 H       1  UNL1        0.1513
     16 H         142.6220  141.2376  172.2884 H       1  UNL1        0.1591
     17 C         140.2046  142.1713  165.0163 C.ar    1  UNL1        0.1173
     18 C         140.3703  143.5704  164.5015 C.ar    1  UNL1        0.0368
     19 C         139.7750  143.9590  163.1806 C.ar    1  UNL1        0.0756
     20 C         139.0140  142.9484  162.3746 C.ar    1  UNL1        0.0231
     21 C         138.8483  141.5493  162.8895 C.ar    1  UNL1        0.0856
     22 C         138.1555  140.3462  162.3214 C.ar    1  UNL1        0.1181
     23 N         138.3226  139.2142  163.2912 N.ar    1  UNL1       -0.2220
     24 C         139.1187  139.7176  164.4586 C.ar    1  UNL1        0.1837
     25 N         139.4436  141.1608  164.2103 N.ar    1  UNL1       -0.2761
     26 C         139.9407  145.3581  162.6658 C.3     1  UNL1        0.4187
     27 F         140.1065  146.7571  162.1509 F       1  UNL1       -0.1659
     28 F         138.4606  145.4507  162.4410 F       1  UNL1       -0.1659
     29 F         141.4209  145.2654  162.8905 F       1  UNL1       -0.1659
@<TRIPOS>BOND
     1     1     2    1
     2     2     3    1
     3     2     4    1
     4     4     5    1
     5     5    17    1
     6    17    18   ar
     7    18    19   ar
     8    19    26    1
     9    26    27    1
    10    26    28    1
    11    26    29    1
    12    19    20   ar
    13    20    21   ar
    14    21    22   ar
    15    22    23   ar
    16    23    24   ar
    17    24    25   ar
    18     5     6    1
    19     6     7    1
    20     8     7    1
    21     8     9    1
    22     9    10   am
    23    10    11    2
    24    10    12   am
    25    12    13   am
    26    13    14    2
    27     8     2    1
    28    25    17   ar
    29    13     8    1
    30    25    21   ar
    31     9    15    1
    32    12    16    1
