@<TRIPOS>MOLECULE
*****
 33 36 0 0 0
SMALL
GASTEIGER

@<TRIPOS>ATOM
      1 C         141.3984  141.9523  165.3219 C.ar    1  UNL1        0.0906
      2 C         141.1282  142.2443  166.7681 C.ar    1  UNL1        0.1496
      3 O         140.0697  143.3048  166.8369 O.2     1  UNL1       -0.4534
      4 C         139.6857  143.6683  165.4331 C.ar    1  UNL1        0.1454
      5 C         138.6945  144.6525  164.8866 C.ar    1  UNL1        0.0406
      6 C         138.5244  144.8007  163.4037 C.ar    1  UNL1        0.0395
      7 C         139.3457  143.9647  162.4673 C.ar    1  UNL1        0.1311
      8 O         139.1756  144.1130  160.9843 O.3     1  UNL1       -0.5058
      9 C         140.3370  142.9806  163.0139 C.ar    1  UNL1        0.0308
     10 C         140.5070  142.8324  164.4968 C.ar    1  UNL1        0.0421
     11 H         138.5564  144.7277  160.6429 H       1  UNL1        0.2922
     12 C         141.7986  141.5905  167.9399 C.ar    1  UNL1        0.0349
     13 C         141.4191  140.1952  168.3386 C.ar    1  UNL1        0.0061
     14 C         142.0896  139.5414  169.5104 C.ar    1  UNL1        0.0367
     15 C         143.1396  140.2829  170.2834 C.ar    1  UNL1        0.1337
     16 O         143.8101  139.6291  171.4552 O.3     1  UNL1       -0.5055
     17 C         143.5191  141.6782  169.8847 C.ar    1  UNL1        0.0367
     18 C         142.8486  142.3320  168.7129 C.ar    1  UNL1        0.0061
     19 H         143.5730  138.7575  171.7042 H       1  UNL1        0.2922
     20 C         142.9070  138.6079  163.8086 C.3     1  UNL1        0.1109
     21 N         141.9188  139.6050  164.3371 N.am    1  UNL1       -0.2991
     22 C         142.3867  140.9552  164.7934 C.2     1  UNL1        0.2490
     23 O         143.8427  141.3082  164.7213 O.2     1  UNL1       -0.2700
     24 H         140.9631  139.3732  164.3844 H       1  UNL1        0.1498
     25 C         141.1582  142.1446  162.0775 C.3     1  UNL1        0.1023
     26 N         140.6040  140.8598  161.5370 N.3     1  UNL1       -0.2668
     27 C         141.4633  139.9709  160.6875 C.3     1  UNL1        0.0725
     28 C         140.9091  138.6861  160.1470 C.3     1  UNL1        0.0199
     29 C         139.4957  138.2902  160.4560 C.3     1  UNL1        0.0321
     30 C         138.6364  139.1790  161.3054 C.3     1  UNL1        0.1265
     31 O         137.2230  138.7831  161.6143 O.3     1  UNL1       -0.3830
     32 C         139.1906  140.4639  161.8460 C.3     1  UNL1        0.1019
     33 H         136.8109  139.4629  162.1702 H       1  UNL1        0.2104
@<TRIPOS>BOND
     1    20    21    1
     2    21    22   am
     3    22    23    2
     4    22     1    1
     5     1     2   ar
     6     2    12    1
     7    12    13   ar
     8    13    14   ar
     9    14    15   ar
    10    15    16    1
    11    15    17   ar
    12    17    18   ar
    13     2     3   ar
    14     3     4   ar
    15     4     5   ar
    16     5     6   ar
    17     6     7   ar
    18     7     8    1
    19     7     9   ar
    20     9    25    1
    21    25    26    1
    22    26    27    1
    23    27    28    1
    24    28    29    1
    25    29    30    1
    26    30    31    1
    27    30    32    1
    28     9    10   ar
    29    10     1   ar
    30    18    12   ar
    31    10     4   ar
    32    32    26    1
    33    21    24    1
    34    16    19    1
    35     8    11    1
    36    31    33    1
@<TRIPOS>MOLECULE
*****
 33 36 0 0 0
SMALL
GASTEIGER

@<TRIPOS>ATOM
      1 C         140.3606  141.6655  165.4325 C.ar    1  UNL1        0.0906
      2 C         140.7559  141.0595  166.7464 C.ar    1  UNL1        0.1496
      3 O         140.4086  139.6008  166.7072 O.2     1  UNL1       -0.4534
      4 C         139.7987  139.3053  165.3690 C.ar    1  UNL1        0.1454
      5 C         139.2666  138.0391  164.7662 C.ar    1  UNL1        0.0406
      6 C         138.7047  138.0490  163.3754 C.ar    1  UNL1        0.0395
      7 C         138.6750  139.3251  162.5876 C.ar    1  UNL1        0.1311
      8 O         138.1131  139.3349  161.1968 O.3     1  UNL1       -0.5058
      9 C         139.2072  140.5913  163.1905 C.ar    1  UNL1        0.0308
     10 C         139.7690  140.5814  164.5812 C.ar    1  UNL1        0.0421
     11 H         137.7807  138.5439  160.8202 H       1  UNL1        0.2922
     12 C         141.3875  141.7849  167.8975 C.ar    1  UNL1        0.0349
     13 C         140.5668  142.7185  168.7369 C.ar    1  UNL1        0.0061
     14 C         141.1984  143.4438  169.8880 C.ar    1  UNL1        0.0367
     15 C         142.6508  143.2356  170.1995 C.ar    1  UNL1        0.1337
     16 O         143.2824  143.9610  171.3506 O.3     1  UNL1       -0.5055
     17 C         143.4716  142.3020  169.3601 C.ar    1  UNL1        0.0367
     18 C         142.8399  141.5767  168.2090 C.ar    1  UNL1        0.0061
     19 H         142.7697  144.5441  171.8750 H       1  UNL1        0.2922
     20 C         141.9674  144.9983  163.9967 C.3     1  UNL1        0.1109
     21 N         141.8005  143.5605  164.3903 N.am    1  UNL1       -0.2991
     22 C         140.5275  143.1033  165.0388 C.2     1  UNL1        0.2490
     23 O         139.4215  144.0840  165.2937 O.2     1  UNL1       -0.2700
     24 H         142.5265  142.9168  164.2230 H       1  UNL1        0.1498
     25 C         139.1774  141.8674  162.4026 C.3     1  UNL1        0.1023
     26 N         140.4054  142.3283  161.6749 N.3     1  UNL1       -0.2668
     27 C         141.5841  141.4107  161.5367 C.3     1  UNL1        0.0725
     28 C         142.8120  141.8716  160.8089 C.3     1  UNL1        0.0199
     29 C         142.8614  143.2500  160.2194 C.3     1  UNL1        0.0321
     30 C         141.6829  144.1676  160.3576 C.3     1  UNL1        0.1265
     31 O         141.7323  145.5460  159.7681 O.3     1  UNL1       -0.3830
     32 C         140.4548  143.7067  161.0854 C.3     1  UNL1        0.1019
     33 H         140.8958  146.0038  159.9458 H       1  UNL1        0.2104
@<TRIPOS>BOND
     1    20    21    1
     2    21    22   am
     3    22    23    2
     4    22     1    1
     5     1     2   ar
     6     2    12    1
     7    12    13   ar
     8    13    14   ar
     9    14    15   ar
    10    15    16    1
    11    15    17   ar
    12    17    18   ar
    13     2     3   ar
    14     3     4   ar
    15     4     5   ar
    16     5     6   ar
    17     6     7   ar
    18     7     8    1
    19     7     9   ar
    20     9    25    1
    21    25    26    1
    22    26    27    1
    23    27    28    1
    24    28    29    1
    25    29    30    1
    26    30    31    1
    27    30    32    1
    28     9    10   ar
    29    10     1   ar
    30    18    12   ar
    31    10     4   ar
    32    32    26    1
    33    21    24    1
    34    16    19    1
    35     8    11    1
    36    31    33    1
@<TRIPOS>MOLECULE
*****
 33 36 0 0 0
SMALL
GASTEIGER

@<TRIPOS>ATOM
      1 C         141.4247  140.8832  165.5092 C.ar    1  UNL1        0.0906
      2 C         141.0929  140.7435  166.9654 C.ar    1  UNL1        0.1496
      3 O         140.1039  139.6251  167.1102 O.2     1  UNL1       -0.4534
      4 C         139.8245  139.0734  165.7436 C.ar    1  UNL1        0.1454
      5 C         138.9323  137.9636  165.2723 C.ar    1  UNL1        0.0406
      6 C         138.8564  137.6313  163.8116 C.ar    1  UNL1        0.0395
      7 C         139.6727  138.4089  162.8221 C.ar    1  UNL1        0.1311
      8 O         139.5968  138.0765  161.3613 O.3     1  UNL1       -0.5058
      9 C         140.5650  139.5187  163.2934 C.ar    1  UNL1        0.0308
     10 C         140.6409  139.8510  164.7541 C.ar    1  UNL1        0.0421
     11 H         139.0395  137.3832  161.0669 H       1  UNL1        0.2922
     12 C         141.6518  141.5762  168.0809 C.ar    1  UNL1        0.0349
     13 C         140.7916  142.6054  168.7522 C.ar    1  UNL1        0.0061
     14 C         141.3505  143.4380  169.8677 C.ar    1  UNL1        0.0367
     15 C         142.7697  143.2415  170.3118 C.ar    1  UNL1        0.1337
     16 O         143.3287  144.0741  171.4273 O.3     1  UNL1       -0.5055
     17 C         143.6299  142.2123  169.6404 C.ar    1  UNL1        0.0367
     18 C         143.0710  141.3797  168.5249 C.ar    1  UNL1        0.0061
     19 H         142.7913  144.7170  171.8466 H       1  UNL1        0.2922
     20 C         142.8427  144.2547  163.9690 C.3     1  UNL1        0.1109
     21 N         141.8936  143.2580  164.5654 N.am    1  UNL1       -0.2991
     22 C         142.3738  141.8799  164.9129 C.2     1  UNL1        0.2490
     23 O         143.8030  141.4989  164.6640 O.2     1  UNL1       -0.2700
     24 H         140.9555  143.5081  164.7287 H       1  UNL1        0.1498
     25 C         141.3813  140.2963  162.3039 C.3     1  UNL1        0.1023
     26 N         140.8992  141.6310  161.8181 N.3     1  UNL1       -0.2668
     27 C         141.7942  142.4902  160.9750 C.3     1  UNL1        0.0725
     28 C         141.3121  143.8250  160.4892 C.3     1  UNL1        0.0199
     29 C         139.9351  144.3005  160.8464 C.3     1  UNL1        0.0321
     30 C         139.0401  143.4413  161.6894 C.3     1  UNL1        0.1265
     31 O         137.6630  143.9168  162.0466 O.3     1  UNL1       -0.3830
     32 C         139.5222  142.1065  162.1753 C.3     1  UNL1        0.1019
     33 H         137.2209  143.2471  162.5914 H       1  UNL1        0.2104
@<TRIPOS>BOND
     1    20    21    1
     2    21    22   am
     3    22    23    2
     4    22     1    1
     5     1     2   ar
     6     2    12    1
     7    12    13   ar
     8    13    14   ar
     9    14    15   ar
    10    15    16    1
    11    15    17   ar
    12    17    18   ar
    13     2     3   ar
    14     3     4   ar
    15     4     5   ar
    16     5     6   ar
    17     6     7   ar
    18     7     8    1
    19     7     9   ar
    20     9    25    1
    21    25    26    1
    22    26    27    1
    23    27    28    1
    24    28    29    1
    25    29    30    1
    26    30    31    1
    27    30    32    1
    28     9    10   ar
    29    10     1   ar
    30    18    12   ar
    31    10     4   ar
    32    32    26    1
    33    21    24    1
    34    16    19    1
    35     8    11    1
    36    31    33    1
@<TRIPOS>MOLECULE
*****
 33 36 0 0 0
SMALL
GASTEIGER

@<TRIPOS>ATOM
      1 C         140.9300  141.5987  165.4235 C.ar    1  UNL1        0.0906
      2 C         140.8495  142.0625  166.8478 C.ar    1  UNL1        0.1496
      3 O         139.9031  143.2249  166.9039 O.2     1  UNL1       -0.4534
      4 C         139.3986  143.4794  165.5143 C.ar    1  UNL1        0.1454
      5 C         138.4434  144.4966  164.9640 C.ar    1  UNL1        0.0406
      6 C         138.1229  144.5086  163.4987 C.ar    1  UNL1        0.0395
      7 C         138.7576  143.5036  162.5838 C.ar    1  UNL1        0.1311
      8 O         138.4370  143.5157  161.1185 O.3     1  UNL1       -0.5058
      9 C         139.7128  142.4865  163.1342 C.ar    1  UNL1        0.0308
     10 C         140.0333  142.4744  164.5994 C.ar    1  UNL1        0.0421
     11 H         137.8403  144.1511  160.7747 H       1  UNL1        0.2922
     12 C         141.5861  141.4683  168.0115 C.ar    1  UNL1        0.0349
     13 C         141.2167  140.1048  168.5158 C.ar    1  UNL1        0.0061
     14 C         141.9533  139.5105  169.6796 C.ar    1  UNL1        0.0367
     15 C         143.0593  140.2798  170.3390 C.ar    1  UNL1        0.1337
     16 O         143.7959  139.6856  171.5028 O.3     1  UNL1       -0.5055
     17 C         143.4287  141.6433  169.8348 C.ar    1  UNL1        0.0367
     18 C         142.6921  142.2376  168.6710 C.ar    1  UNL1        0.0061
     19 H         143.5651  138.8339  171.8178 H       1  UNL1        0.2922
     20 C         144.0397  139.5361  164.0724 C.3     1  UNL1        0.1109
     21 N         143.2085  140.6755  164.5829 N.am    1  UNL1       -0.2991
     22 C         141.7612  140.4592  164.9130 C.2     1  UNL1        0.2490
     23 O         141.1454  139.1035  164.7326 O.2     1  UNL1       -0.2700
     24 H         143.6127  141.5654  164.7013 H       1  UNL1        0.1498
     25 C         140.3475  141.4814  162.2193 C.3     1  UNL1        0.1023
     26 N         141.7624  141.6737  161.7599 N.3     1  UNL1       -0.2668
     27 C         142.4156  140.6407  160.8903 C.3     1  UNL1        0.0725
     28 C         143.8305  140.8330  160.4310 C.3     1  UNL1        0.0199
     29 C         144.5923  142.0583  160.8412 C.3     1  UNL1        0.0321
     30 C         143.9391  143.0913  161.7108 C.3     1  UNL1        0.1265
     31 O         144.7009  144.3167  162.1210 O.3     1  UNL1       -0.3830
     32 C         142.5241  142.8991  162.1702 C.3     1  UNL1        0.1019
     33 H         144.1371  144.8767  162.6772 H       1  UNL1        0.2104
@<TRIPOS>BOND
     1    20    21    1
     2    21    22   am
     3    22    23    2
     4    22     1    1
     5     1     2   ar
     6     2    12    1
     7    12    13   ar
     8    13    14   ar
     9    14    15   ar
    10    15    16    1
    11    15    17   ar
    12    17    18   ar
    13     2     3   ar
    14     3     4   ar
    15     4     5   ar
    16     5     6   ar
    17     6     7   ar
    18     7     8    1
    19     7     9   ar
    20     9    25    1
    21    25    26    1
    22    26    27    1
    23    27    28    1
    24    28    29    1
    25    29    30    1
    26    30    31    1
    27    30    32    1
    28     9    10   ar
    29    10     1   ar
    30    18    12   ar
    31    10     4   ar
    32    32    26    1
    33    21    24    1
    34    16    19    1
    35     8    11    1
    36    31    33    1
@<TRIPOS>MOLECULE
*****
 33 36 0 0 0
SMALL
GASTEIGER

@<TRIPOS>ATOM
      1 C         141.6739  142.2371  165.3029 C.ar    1  UNL1        0.0906
      2 C         141.2107  142.3104  166.7277 C.ar    1  UNL1        0.1496
      3 O         139.9798  143.1666  166.7715 O.2     1  UNL1       -0.4534
      4 C         139.6823  143.6225  165.3737 C.ar    1  UNL1        0.1454
      5 C         138.5933  144.4864  164.8102 C.ar    1  UNL1        0.0406
      6 C         138.5513  144.7760  163.3390 C.ar    1  UNL1        0.0395
      7 C         139.5984  144.2015  162.4314 C.ar    1  UNL1        0.1311
      8 O         139.5563  144.4911  160.9602 O.3     1  UNL1       -0.5058
      9 C         140.6874  143.3376  162.9949 C.ar    1  UNL1        0.0308
     10 C         140.7293  143.0480  164.4661 C.ar    1  UNL1        0.0421
     11 H         138.8761  145.0308  160.6081 H       1  UNL1        0.2922
     12 C         141.8637  141.6444  167.9025 C.ar    1  UNL1        0.0349
     13 C         142.8581  142.3983  168.7348 C.ar    1  UNL1        0.0061
     14 C         143.5110  141.7323  169.9095 C.ar    1  UNL1        0.0367
     15 C         143.1697  140.3124  170.2520 C.ar    1  UNL1        0.1337
     16 O         143.8226  139.6464  171.4268 O.3     1  UNL1       -0.5055
     17 C         142.1753  139.5585  169.4197 C.ar    1  UNL1        0.0367
     18 C         141.5223  140.2245  168.2449 C.ar    1  UNL1        0.0061
     19 H         144.4438  140.1174  171.9467 H       1  UNL1        0.2922
     20 C         143.9400  139.2897  163.9144 C.3     1  UNL1        0.1109
     21 N         142.7424  140.0418  164.4146 N.am    1  UNL1       -0.2991
     22 C         142.8715  141.4850  164.8027 C.2     1  UNL1        0.2490
     23 O         144.1980  142.1760  164.6905 O.2     1  UNL1       -0.2700
     24 H         141.8717  139.5882  164.4882 H       1  UNL1        0.1498
     25 C         141.7344  142.7632  162.0873 C.3     1  UNL1        0.1023
     26 N         141.5815  141.3698  161.5533 N.3     1  UNL1       -0.2668
     27 C         140.3145  140.6062  161.8016 C.3     1  UNL1        0.0725
     28 C         140.1616  139.2129  161.2676 C.3     1  UNL1        0.0199
     29 C         141.2758  138.5831  160.4853 C.3     1  UNL1        0.0321
     30 C         142.5428  139.3466  160.2370 C.3     1  UNL1        0.1265
     31 O         143.6569  138.7168  159.4547 O.3     1  UNL1       -0.3830
     32 C         142.6957  140.7400  160.7710 C.3     1  UNL1        0.1019
     33 H         144.3969  139.3402  159.3866 H       1  UNL1        0.2104
@<TRIPOS>BOND
     1    20    21    1
     2    21    22   am
     3    22    23    2
     4    22     1    1
     5     1     2   ar
     6     2    12    1
     7    12    13   ar
     8    13    14   ar
     9    14    15   ar
    10    15    16    1
    11    15    17   ar
    12    17    18   ar
    13     2     3   ar
    14     3     4   ar
    15     4     5   ar
    16     5     6   ar
    17     6     7   ar
    18     7     8    1
    19     7     9   ar
    20     9    25    1
    21    25    26    1
    22    26    27    1
    23    27    28    1
    24    28    29    1
    25    29    30    1
    26    30    31    1
    27    30    32    1
    28     9    10   ar
    29    10     1   ar
    30    18    12   ar
    31    10     4   ar
    32    32    26    1
    33    21    24    1
    34    16    19    1
    35     8    11    1
    36    31    33    1
@<TRIPOS>MOLECULE
*****
 33 36 0 0 0
SMALL
GASTEIGER

@<TRIPOS>ATOM
      1 C         141.4313  141.9642  165.3592 C.ar    1  UNL1        0.0906
      2 C         142.3208  142.0081  166.5662 C.ar    1  UNL1        0.1496
      3 O         143.6822  142.4551  166.1225 O.2     1  UNL1       -0.4534
      4 C         143.6340  142.6875  164.6414 C.ar    1  UNL1        0.1454
      5 C         144.6772  143.1361  163.6614 C.ar    1  UNL1        0.0406
      6 C         144.3292  143.2813  162.2096 C.ar    1  UNL1        0.0395
      7 C         142.9380  142.9780  161.7378 C.ar    1  UNL1        0.1311
      8 O         142.5900  143.1233  160.2860 O.3     1  UNL1       -0.5058
      9 C         141.8948  142.5294  162.7179 C.ar    1  UNL1        0.0308
     10 C         142.2428  142.3841  164.1696 C.ar    1  UNL1        0.0421
     11 H         143.2417  143.4035  159.6738 H       1  UNL1        0.2922
     12 C         141.9194  141.6652  167.9702 C.ar    1  UNL1        0.0349
     13 C         142.3834  140.3807  168.5904 C.ar    1  UNL1        0.0061
     14 C         141.9820  140.0378  169.9944 C.ar    1  UNL1        0.0367
     15 C         141.1167  140.9794  170.7783 C.ar    1  UNL1        0.1337
     16 O         140.7154  140.6365  172.1823 O.3     1  UNL1       -0.5055
     17 C         140.6528  142.2640  170.1581 C.ar    1  UNL1        0.0367
     18 C         141.0541  142.6069  168.7541 C.ar    1  UNL1        0.0061
     19 H         141.0052  139.8341  172.5697 H       1  UNL1        0.2922
     20 C         138.1542  139.7257  165.3798 C.3     1  UNL1        0.1109
     21 N         139.6013  140.1202  165.3946 N.am    1  UNL1       -0.2991
     22 C         139.9841  141.5698  165.3444 C.2     1  UNL1        0.2490
     23 O         138.9198  142.6246  165.2793 O.2     1  UNL1       -0.2700
     24 H         140.2998  139.4278  165.4373 H       1  UNL1        0.1498
     25 C         140.5036  142.2260  162.2461 C.3     1  UNL1        0.1023
     26 N         140.0572  140.8022  162.0934 N.3     1  UNL1       -0.2668
     27 C         138.6064  140.4904  161.8740 C.3     1  UNL1        0.0725
     28 C         138.1600  139.0666  161.7213 C.3     1  UNL1        0.0199
     29 C         139.1644  137.9544  161.7880 C.3     1  UNL1        0.0321
     30 C         140.6151  138.2661  162.0074 C.3     1  UNL1        0.1265
     31 O         141.6194  137.1540  162.0741 O.3     1  UNL1       -0.3830
     32 C         141.0616  139.6900  162.1601 C.3     1  UNL1        0.1019
     33 H         142.5037  137.5252  162.2194 H       1  UNL1        0.2104
@<TRIPOS>BOND
     1    20    21    1
     2    21    22   am
     3    22    23    2
     4    22     1    1
     5     1     2   ar
     6     2    12    1
     7    12    13   ar
     8    13    14   ar
     9    14    15   ar
    10    15    16    1
    11    15    17   ar
    12    17    18   ar
    13     2     3   ar
    14     3     4   ar
    15     4     5   ar
    16     5     6   ar
    17     6     7   ar
    18     7     8    1
    19     7     9   ar
    20     9    25    1
    21    25    26    1
    22    26    27    1
    23    27    28    1
    24    28    29    1
    25    29    30    1
    26    30    31    1
    27    30    32    1
    28     9    10   ar
    29    10     1   ar
    30    18    12   ar
    31    10     4   ar
    32    32    26    1
    33    21    24    1
    34    16    19    1
    35     8    11    1
    36    31    33    1
@<TRIPOS>MOLECULE
*****
 33 36 0 0 0
SMALL
GASTEIGER

@<TRIPOS>ATOM
      1 C         140.9901  141.2112  165.4749 C.ar    1  UNL1        0.0906
      2 C         140.9647  140.8416  166.9284 C.ar    1  UNL1        0.1496
      3 O         140.2488  139.5301  167.0607 O.2     1  UNL1       -0.4534
      4 C         139.8317  139.0892  165.6889 C.ar    1  UNL1        0.1454
      5 C         139.0940  137.8759  165.2056 C.ar    1  UNL1        0.0406
      6 C         138.8144  137.7017  163.7423 C.ar    1  UNL1        0.0395
      7 C         139.2725  138.7407  162.7622 C.ar    1  UNL1        0.1311
      8 O         138.9929  138.5664  161.2988 O.3     1  UNL1       -0.5058
      9 C         140.0103  139.9540  163.2455 C.ar    1  UNL1        0.0308
     10 C         140.2899  140.1283  164.7088 C.ar    1  UNL1        0.0421
     11 H         138.5320  137.8085  160.9970 H       1  UNL1        0.2922
     12 C         141.5521  141.6427  168.0523 C.ar    1  UNL1        0.0349
     13 C         140.6973  142.6199  168.8035 C.ar    1  UNL1        0.0061
     14 C         141.2847  143.4210  169.9274 C.ar    1  UNL1        0.0367
     15 C         142.7269  143.2450  170.3001 C.ar    1  UNL1        0.1337
     16 O         143.3143  144.0461  171.4240 O.3     1  UNL1       -0.5055
     17 C         143.5817  142.2677  169.5490 C.ar    1  UNL1        0.0367
     18 C         142.9943  141.4666  168.4251 C.ar    1  UNL1        0.0061
     19 H         142.7803  144.6565  171.8933 H       1  UNL1        0.2922
     20 C         143.6508  143.6610  163.8410 C.3     1  UNL1        0.1109
     21 N         143.0336  142.4253  164.4258 N.am    1  UNL1       -0.2991
     22 C         141.6073  142.4470  164.8901 C.2     1  UNL1        0.2490
     23 O         140.7985  143.7043  164.7695 O.2     1  UNL1       -0.2700
     24 H         143.5645  141.6000  164.5049 H       1  UNL1        0.1498
     25 C         140.4684  140.9930  162.2654 C.3     1  UNL1        0.1023
     26 N         141.5318  140.6598  161.2614 N.3     1  UNL1       -0.2668
     27 C         141.5072  141.2967  159.9035 C.3     1  UNL1        0.0725
     28 C         142.5706  140.9635  158.8994 C.3     1  UNL1        0.0199
     29 C         143.6585  139.9933  159.2532 C.3     1  UNL1        0.0321
     30 C         143.6831  139.3564  160.6109 C.3     1  UNL1        0.1265
     31 O         144.7711  138.3862  160.9647 O.3     1  UNL1       -0.3830
     32 C         142.6197  139.6896  161.6151 C.3     1  UNL1        0.1019
     33 H         144.6399  138.0702  161.8723 H       1  UNL1        0.2104
@<TRIPOS>BOND
     1    20    21    1
     2    21    22   am
     3    22    23    2
     4    22     1    1
     5     1     2   ar
     6     2    12    1
     7    12    13   ar
     8    13    14   ar
     9    14    15   ar
    10    15    16    1
    11    15    17   ar
    12    17    18   ar
    13     2     3   ar
    14     3     4   ar
    15     4     5   ar
    16     5     6   ar
    17     6     7   ar
    18     7     8    1
    19     7     9   ar
    20     9    25    1
    21    25    26    1
    22    26    27    1
    23    27    28    1
    24    28    29    1
    25    29    30    1
    26    30    31    1
    27    30    32    1
    28     9    10   ar
    29    10     1   ar
    30    18    12   ar
    31    10     4   ar
    32    32    26    1
    33    21    24    1
    34    16    19    1
    35     8    11    1
    36    31    33    1
@<TRIPOS>MOLECULE
*****
 33 36 0 0 0
SMALL
GASTEIGER

@<TRIPOS>ATOM
      1 C         141.1664  141.4626  164.2895 C.ar    1  UNL1        0.0906
      2 C         141.2162  140.1652  165.0407 C.ar    1  UNL1        0.1496
      3 O         142.6378  139.6867  165.0452 O.2     1  UNL1       -0.4534
      4 C         143.4665  140.6882  164.2968 C.ar    1  UNL1        0.1454
      5 C         144.9317  140.7426  163.9804 C.ar    1  UNL1        0.0406
      6 C         145.4875  141.8946  163.1968 C.ar    1  UNL1        0.0395
      7 C         144.5780  142.9922  162.7297 C.ar    1  UNL1        0.1311
      8 O         145.1339  144.1443  161.9461 O.3     1  UNL1       -0.5058
      9 C         143.1129  142.9378  163.0462 C.ar    1  UNL1        0.0308
     10 C         142.5571  141.7859  163.8297 C.ar    1  UNL1        0.0421
     11 H         146.0491  144.1782  161.7484 H       1  UNL1        0.2922
     12 C         140.0494  139.4687  165.6758 C.ar    1  UNL1        0.0349
     13 C         139.4317  140.0263  166.9238 C.ar    1  UNL1        0.0061
     14 C         138.2649  139.3298  167.5589 C.ar    1  UNL1        0.0367
     15 C         137.7158  138.0757  166.9460 C.ar    1  UNL1        0.1337
     16 O         136.5489  137.3792  167.5812 O.3     1  UNL1       -0.5055
     17 C         138.3334  137.5181  165.6980 C.ar    1  UNL1        0.0367
     18 C         139.5003  138.2146  165.0629 C.ar    1  UNL1        0.0061
     19 H         136.1631  137.7275  168.3608 H       1  UNL1        0.2922
     20 C         137.9676  142.9847  162.5002 C.3     1  UNL1        0.1109
     21 N         139.1931  142.1560  162.7481 N.am    1  UNL1       -0.2991
     22 C         139.9409  142.2913  164.0415 C.2     1  UNL1        0.2490
     23 O         139.4631  143.2552  165.0867 O.2     1  UNL1       -0.2700
     24 H         139.5066  141.5233  162.0621 H       1  UNL1        0.1498
     25 C         142.2034  144.0355  162.5791 C.3     1  UNL1        0.1023
     26 N         141.5837  143.9664  161.2149 N.3     1  UNL1       -0.2668
     27 C         140.7833  145.1238  160.6952 C.3     1  UNL1        0.0725
     28 C         140.1636  145.0547  159.3310 C.3     1  UNL1        0.0199
     29 C         140.3442  143.8283  158.4864 C.3     1  UNL1        0.0321
     30 C         141.1445  142.6710  159.0060 C.3     1  UNL1        0.1265
     31 O         141.3251  141.4446  158.1614 O.3     1  UNL1       -0.3830
     32 C         141.7643  142.7400  160.3703 C.3     1  UNL1        0.1019
     33 H         141.8639  140.7972  158.6425 H       1  UNL1        0.2104
@<TRIPOS>BOND
     1    20    21    1
     2    21    22   am
     3    22    23    2
     4    22     1    1
     5     1     2   ar
     6     2    12    1
     7    12    13   ar
     8    13    14   ar
     9    14    15   ar
    10    15    16    1
    11    15    17   ar
    12    17    18   ar
    13     2     3   ar
    14     3     4   ar
    15     4     5   ar
    16     5     6   ar
    17     6     7   ar
    18     7     8    1
    19     7     9   ar
    20     9    25    1
    21    25    26    1
    22    26    27    1
    23    27    28    1
    24    28    29    1
    25    29    30    1
    26    30    31    1
    27    30    32    1
    28     9    10   ar
    29    10     1   ar
    30    18    12   ar
    31    10     4   ar
    32    32    26    1
    33    21    24    1
    34    16    19    1
    35     8    11    1
    36    31    33    1
@<TRIPOS>MOLECULE
*****
 33 36 0 0 0
SMALL
GASTEIGER

@<TRIPOS>ATOM
      1 C         139.9409  140.6149  165.0662 C.ar    1  UNL1        0.0906
      2 C         139.7995  139.5996  166.1613 C.ar    1  UNL1        0.1496
      3 O         139.4023  138.2954  165.5357 O.2     1  UNL1       -0.4534
      4 C         139.2982  138.5047  164.0540 C.ar    1  UNL1        0.1454
      5 C         138.9434  137.5751  162.9315 C.ar    1  UNL1        0.0406
      6 C         138.9213  138.0791  161.5190 C.ar    1  UNL1        0.0395
      7 C         139.2542  139.5127  161.2288 C.ar    1  UNL1        0.1311
      8 O         139.2321  140.0166  159.8161 O.3     1  UNL1       -0.5058
      9 C         139.6090  140.4422  162.3512 C.ar    1  UNL1        0.0308
     10 C         139.6311  139.9383  163.7638 C.ar    1  UNL1        0.0421
     11 H         139.0104  139.4359  159.1149 H       1  UNL1        0.2922
     12 C         140.0171  139.8453  167.6249 C.ar    1  UNL1        0.0349
     13 C         141.4112  139.9347  168.1713 C.ar    1  UNL1        0.0061
     14 C         141.6288  140.1804  169.6349 C.ar    1  UNL1        0.0367
     15 C         140.4523  140.3368  170.5522 C.ar    1  UNL1        0.1337
     16 O         140.6699  140.5825  172.0159 O.3     1  UNL1       -0.5055
     17 C         139.0583  140.2474  170.0059 C.ar    1  UNL1        0.0367
     18 C         138.8407  140.0017  168.5422 C.ar    1  UNL1        0.0061
     19 H         141.5408  140.6383  172.3572 H       1  UNL1        0.2922
     20 C         139.6679  144.5674  165.2985 C.3     1  UNL1        0.1109
     21 N         139.2841  143.1281  165.1222 N.am    1  UNL1       -0.2991
     22 C         140.3246  142.0542  165.2425 C.2     1  UNL1        0.2490
     23 O         141.7488  142.4198  165.5391 O.2     1  UNL1       -0.2700
     24 H         138.3494  142.8882  164.9275 H       1  UNL1        0.1498
     25 C         139.9418  141.8758  162.0611 C.3     1  UNL1        0.1023
     26 N         141.3739  142.3000  161.9227 N.3     1  UNL1       -0.2668
     27 C         142.3877  141.3471  161.3621 C.3     1  UNL1        0.0725
     28 C         143.8197  141.7714  161.2237 C.3     1  UNL1        0.0199
     29 C         144.2381  143.1486  161.6458 C.3     1  UNL1        0.0321
     30 C         143.2244  144.1015  162.2064 C.3     1  UNL1        0.1265
     31 O         143.6427  145.4787  162.6286 O.3     1  UNL1       -0.3830
     32 C         141.7922  143.6773  162.3449 C.3     1  UNL1        0.1019
     33 H         142.8720  145.9617  162.9657 H       1  UNL1        0.2104
@<TRIPOS>BOND
     1    20    21    1
     2    21    22   am
     3    22    23    2
     4    22     1    1
     5     1     2   ar
     6     2    12    1
     7    12    13   ar
     8    13    14   ar
     9    14    15   ar
    10    15    16    1
    11    15    17   ar
    12    17    18   ar
    13     2     3   ar
    14     3     4   ar
    15     4     5   ar
    16     5     6   ar
    17     6     7   ar
    18     7     8    1
    19     7     9   ar
    20     9    25    1
    21    25    26    1
    22    26    27    1
    23    27    28    1
    24    28    29    1
    25    29    30    1
    26    30    31    1
    27    30    32    1
    28     9    10   ar
    29    10     1   ar
    30    18    12   ar
    31    10     4   ar
    32    32    26    1
    33    21    24    1
    34    16    19    1
    35     8    11    1
    36    31    33    1
