@<TRIPOS>MOLECULE
*****
 41 46 0 0 0
SMALL
GASTEIGER

@<TRIPOS>ATOM
      1 C         141.8194  140.0275  159.2851 C.3     1  UNL1        0.1056
      2 N         139.7060  139.0867  163.1449 N.pl3   1  UNL1       -0.3047
      3 C         138.9330  139.1407  161.8605 C.3     1  UNL1        0.1081
      4 C         139.6375  139.4544  160.5739 C.3     1  UNL1        0.0939
      5 N         141.1149  139.7139  160.5717 N.3     1  UNL1       -0.2676
      6 C         141.8878  139.6598  161.8561 C.3     1  UNL1        0.0939
      7 C         141.1833  139.3462  163.1427 C.3     1  UNL1        0.1081
      8 C         138.4342  139.8830  165.2659 C.ar    1  UNL1        0.0133
      9 C         137.7297  139.5694  166.5525 C.ar    1  UNL1        0.0012
     10 C         137.5925  138.1459  167.0048 C.ar    1  UNL1        0.0001
     11 C         138.1599  137.0358  166.1704 C.ar    1  UNL1        0.0013
     12 C         138.8643  137.3494  164.8838 C.ar    1  UNL1        0.0145
     13 C         139.0015  138.7731  164.4316 C.ar    1  UNL1        0.0479
     14 C         138.8457  144.1538  163.9091 C.ar    1  UNL1        0.1387
     15 C         139.7732  143.6058  164.9528 C.ar    1  UNL1        0.0369
     16 C         139.6360  142.1822  165.4050 C.ar    1  UNL1        0.0032
     17 C         138.5713  141.3067  164.8136 C.ar    1  UNL1        0.0014
     18 C         137.6438  141.8547  163.7699 C.ar    1  UNL1        0.0032
     19 C         137.7810  143.2783  163.3177 C.ar    1  UNL1        0.0369
     20 C         139.6968  145.8919  162.1757 C.3     1  UNL1        0.2525
     21 O         138.9828  145.5775  163.4568 O.3     1  UNL1       -0.4714
     22 C         143.2920  140.3128  159.2866 C.3     1  UNL1        0.1700
     23 O         144.2754  139.1803  159.3060 O.3     1  UNL1       -0.3793
     24 H         143.7968  138.3367  159.3160 H       1  UNL1        0.2106
     25 C         143.7813  141.7307  159.2687 C.3     1  UNL1        0.2358
     26 O         144.7258  142.2116  160.3301 O.3     1  UNL1       -0.4728
     27 C         144.3591  142.0752  161.7782 C.ar    1  UNL1        0.1387
     28 C         143.3353  142.9901  162.3821 C.ar    1  UNL1        0.0369
     29 C         142.9686  142.8536  163.8302 C.ar    1  UNL1        0.0047
     30 C         143.6257  141.8022  164.6743 C.ar    1  UNL1        0.0194
     31 C         144.6495  140.8872  164.0704 C.ar    1  UNL1        0.0047
     32 C         145.0161  141.0237  162.6224 C.ar    1  UNL1        0.0369
     33 C         143.2590  141.6657  166.1224 C.ar    1  UNL1        0.1004
     34 C         142.7412  140.4250  166.7877 C.ar    1  UNL1        0.1006
     35 N         142.5079  140.7385  168.2359 N.ar    1  UNL1       -0.2875
     36 C         142.0036  139.9031  169.3750 C.ar    1  UNL1        0.0815
     37 C         141.8728  140.5021  170.7440 C.ar    1  UNL1        0.0191
     38 C         142.2464  141.9365  170.9738 C.ar    1  UNL1        0.0046
     39 C         142.7508  142.7719  169.8346 C.ar    1  UNL1        0.0374
     40 C         142.8815  142.1729  168.4657 C.ar    1  UNL1        0.1478
     41 N         143.3457  142.7460  167.1595 N.ar    1  UNL1       -0.2264
@<TRIPOS>BOND
     1    20    21    1
     2    21    14    1
     3    14    15   ar
     4    15    16   ar
     5    16    17   ar
     6    17     8    1
     7     8     9   ar
     8     9    10   ar
     9    10    11   ar
    10    11    12   ar
    11    12    13   ar
    12    13     2    1
    13     2     3    1
    14     3     4    1
    15     4     5    1
    16     5     1    1
    17     1    22    1
    18    22    23    1
    19    22    25    1
    20    25    26    1
    21    26    27    1
    22    27    28   ar
    23    28    29   ar
    24    29    30   ar
    25    30    33    1
    26    33    34   ar
    27    34    35   ar
    28    35    36   ar
    29    36    37   ar
    30    37    38   ar
    31    38    39   ar
    32    39    40   ar
    33    40    41   ar
    34    30    31   ar
    35    31    32   ar
    36     5     6    1
    37     6     7    1
    38    17    18   ar
    39    18    19   ar
    40    19    14   ar
    41    13     8   ar
    42     7     2    1
    43    32    27   ar
    44    41    33   ar
    45    40    35   ar
    46    23    24    1
@<TRIPOS>MOLECULE
*****
 41 46 0 0 0
SMALL
GASTEIGER

@<TRIPOS>ATOM
      1 C         137.4943  142.2386  162.9826 C.3     1  UNL1        0.1056
      2 N         139.8442  140.7335  166.5128 N.pl3   1  UNL1       -0.3047
      3 C         138.9518  139.7981  165.7521 C.3     1  UNL1        0.1081
      4 C         138.1685  140.2998  164.5753 C.3     1  UNL1        0.0939
      5 N         138.2776  141.7369  164.1593 N.3     1  UNL1       -0.2676
      6 C         139.1701  142.6722  164.9201 C.3     1  UNL1        0.0939
      7 C         139.9534  142.1704  166.0968 C.3     1  UNL1        0.1081
      8 C         142.0260  139.7242  167.4983 C.ar    1  UNL1        0.0133
      9 C         142.8093  139.2225  168.6750 C.ar    1  UNL1        0.0012
     10 C         142.1942  139.2283  170.0430 C.ar    1  UNL1        0.0001
     11 C         140.7956  139.7358  170.2344 C.ar    1  UNL1        0.0013
     12 C         140.0123  140.2376  169.0576 C.ar    1  UNL1        0.0145
     13 C         140.6276  140.2317  167.6896 C.ar    1  UNL1        0.0479
     14 C         143.8717  139.7067  163.3943 C.ar    1  UNL1        0.1387
     15 C         143.0535  138.5365  163.8536 C.ar    1  UNL1        0.0369
     16 C         142.4383  138.5423  165.2216 C.ar    1  UNL1        0.0032
     17 C         142.6413  139.7184  166.1302 C.ar    1  UNL1        0.0014
     18 C         143.4594  140.8887  165.6709 C.ar    1  UNL1        0.0032
     19 C         144.0746  140.8828  164.3029 C.ar    1  UNL1        0.0369
     20 C         144.0894  138.6528  161.0295 C.3     1  UNL1        0.2525
     21 O         144.4869  139.7009  162.0262 O.3     1  UNL1       -0.4714
     22 C         137.9542  143.4585  162.2406 C.3     1  UNL1        0.1700
     23 O         137.3359  144.7930  162.5351 O.3     1  UNL1       -0.3793
     24 H         136.6613  144.6916  163.2246 H       1  UNL1        0.2106
     25 C         139.0323  143.3437  161.2040 C.3     1  UNL1        0.2358
     26 O         140.2473  142.5068  161.4750 O.3     1  UNL1       -0.4728
     27 C         140.5848  141.3594  160.5698 C.ar    1  UNL1        0.1387
     28 C         141.3694  141.6002  159.3143 C.ar    1  UNL1        0.0369
     29 C         141.7070  140.4528  158.4091 C.ar    1  UNL1        0.0047
     30 C         141.2598  139.0645  158.7593 C.ar    1  UNL1        0.0194
     31 C         140.4752  138.8237  160.0148 C.ar    1  UNL1        0.0047
     32 C         140.1377  139.9711  160.9200 C.ar    1  UNL1        0.0369
     33 C         141.5973  137.9171  157.8540 C.ar    1  UNL1        0.1004
     34 C         140.7053  137.3354  156.7977 C.ar    1  UNL1        0.1006
     35 N         141.4428  136.2087  156.1370 N.ar    1  UNL1       -0.2875
     36 C         141.0611  135.2724  155.0290 C.ar    1  UNL1        0.0815
     37 C         142.0274  134.2213  154.5691 C.ar    1  UNL1        0.0191
     38 C         143.3753  134.1066  155.2171 C.ar    1  UNL1        0.0046
     39 C         143.7569  135.0429  156.3251 C.ar    1  UNL1        0.0374
     40 C         142.7907  136.0939  156.7850 C.ar    1  UNL1        0.1478
     41 N         142.8862  137.1498  157.8462 N.ar    1  UNL1       -0.2264
@<TRIPOS>BOND
     1    20    21    1
     2    21    14    1
     3    14    15   ar
     4    15    16   ar
     5    16    17   ar
     6    17     8    1
     7     8     9   ar
     8     9    10   ar
     9    10    11   ar
    10    11    12   ar
    11    12    13   ar
    12    13     2    1
    13     2     3    1
    14     3     4    1
    15     4     5    1
    16     5     1    1
    17     1    22    1
    18    22    23    1
    19    22    25    1
    20    25    26    1
    21    26    27    1
    22    27    28   ar
    23    28    29   ar
    24    29    30   ar
    25    30    33    1
    26    33    34   ar
    27    34    35   ar
    28    35    36   ar
    29    36    37   ar
    30    37    38   ar
    31    38    39   ar
    32    39    40   ar
    33    40    41   ar
    34    30    31   ar
    35    31    32   ar
    36     5     6    1
    37     6     7    1
    38    17    18   ar
    39    18    19   ar
    40    19    14   ar
    41    13     8   ar
    42     7     2    1
    43    32    27   ar
    44    41    33   ar
    45    40    35   ar
    46    23    24    1
@<TRIPOS>MOLECULE
*****
 41 46 0 0 0
SMALL
GASTEIGER

@<TRIPOS>ATOM
      1 C         143.4286  144.2925  162.7817 C.3     1  UNL1        0.1056
      2 N         141.3208  142.4874  166.3241 N.pl3   1  UNL1       -0.3047
      3 C         142.7984  142.2941  166.1520 C.3     1  UNL1        0.1081
      4 C         143.5010  142.8958  164.9712 C.3     1  UNL1        0.0939
      5 N         142.7260  143.6908  163.9625 N.3     1  UNL1       -0.2676
      6 C         141.2485  143.8840  164.1345 C.3     1  UNL1        0.0939
      7 C         140.5459  143.2823  165.3153 C.3     1  UNL1        0.1081
      8 C         139.9613  140.5428  167.3824 C.ar    1  UNL1        0.0133
      9 C         139.2587  139.9411  168.5632 C.ar    1  UNL1        0.0012
     10 C         139.2130  140.6822  169.8665 C.ar    1  UNL1        0.0001
     11 C         139.8700  142.0252  169.9890 C.ar    1  UNL1        0.0013
     12 C         140.5726  142.6269  168.8082 C.ar    1  UNL1        0.0145
     13 C         140.6182  141.8857  167.5049 C.ar    1  UNL1        0.0479
     14 C         140.0983  138.3191  163.4726 C.ar    1  UNL1        0.1387
     15 C         141.2772  138.2802  164.3993 C.ar    1  UNL1        0.0369
     16 C         141.2315  139.0214  165.7025 C.ar    1  UNL1        0.0032
     17 C         140.0069  139.8015  166.0791 C.ar    1  UNL1        0.0014
     18 C         138.8280  139.8404  165.1525 C.ar    1  UNL1        0.0032
     19 C         138.8737  139.0992  163.8493 C.ar    1  UNL1        0.0369
     20 C         139.3366  138.0630  161.0019 C.3     1  UNL1        0.2525
     21 O         140.1439  137.5778  162.1693 O.3     1  UNL1       -0.4714
     22 C         143.5510  143.5142  161.5052 C.3     1  UNL1        0.1700
     23 O         142.7599  143.9236  160.2984 O.3     1  UNL1       -0.3793
     24 H         142.2247  144.7039  160.5120 H       1  UNL1        0.2106
     25 C         144.4646  142.3266  161.4356 C.3     1  UNL1        0.2358
     26 O         143.9440  140.9594  161.7667 O.3     1  UNL1       -0.4728
     27 C         143.5984  140.0014  160.6654 C.ar    1  UNL1        0.1387
     28 C         143.2558  138.5776  160.9900 C.ar    1  UNL1        0.0369
     29 C         142.9103  137.6196  159.8887 C.ar    1  UNL1        0.0047
     30 C         142.9074  138.0854  158.4629 C.ar    1  UNL1        0.0194
     31 C         143.2500  139.5092  158.1384 C.ar    1  UNL1        0.0047
     32 C         143.5955  140.4672  159.2396 C.ar    1  UNL1        0.0369
     33 C         142.5618  137.1274  157.3616 C.ar    1  UNL1        0.1004
     34 C         141.7966  137.4568  156.1142 C.ar    1  UNL1        0.1006
     35 N         141.6827  136.2047  155.2960 N.ar    1  UNL1       -0.2875
     36 C         141.0360  135.9267  153.9715 C.ar    1  UNL1        0.0815
     37 C         141.0842  134.5454  153.3886 C.ar    1  UNL1        0.0191
     38 C         141.7790  133.4422  154.1303 C.ar    1  UNL1        0.0046
     39 C         142.4257  133.7202  155.4549 C.ar    1  UNL1        0.0374
     40 C         142.3775  135.1015  156.0377 C.ar    1  UNL1        0.1478
     41 N         142.9208  135.6717  157.3143 N.ar    1  UNL1       -0.2264
@<TRIPOS>BOND
     1    20    21    1
     2    21    14    1
     3    14    15   ar
     4    15    16   ar
     5    16    17   ar
     6    17     8    1
     7     8     9   ar
     8     9    10   ar
     9    10    11   ar
    10    11    12   ar
    11    12    13   ar
    12    13     2    1
    13     2     3    1
    14     3     4    1
    15     4     5    1
    16     5     1    1
    17     1    22    1
    18    22    23    1
    19    22    25    1
    20    25    26    1
    21    26    27    1
    22    27    28   ar
    23    28    29   ar
    24    29    30   ar
    25    30    33    1
    26    33    34   ar
    27    34    35   ar
    28    35    36   ar
    29    36    37   ar
    30    37    38   ar
    31    38    39   ar
    32    39    40   ar
    33    40    41   ar
    34    30    31   ar
    35    31    32   ar
    36     5     6    1
    37     6     7    1
    38    17    18   ar
    39    18    19   ar
    40    19    14   ar
    41    13     8   ar
    42     7     2    1
    43    32    27   ar
    44    41    33   ar
    45    40    35   ar
    46    23    24    1
@<TRIPOS>MOLECULE
*****
 41 46 0 0 0
SMALL
GASTEIGER

@<TRIPOS>ATOM
      1 C         140.2954  139.0193  158.2788 C.3     1  UNL1        0.1056
      2 N         139.1089  138.8262  162.6153 N.pl3   1  UNL1       -0.3047
      3 C         138.1743  139.4280  161.6081 C.3     1  UNL1        0.1081
      4 C         138.5697  139.4923  160.1626 C.3     1  UNL1        0.0939
      5 N         139.8999  138.9549  159.7243 N.3     1  UNL1       -0.2676
      6 C         140.8344  138.3532  160.7315 C.3     1  UNL1        0.0939
      7 C         140.4390  138.2888  162.1770 C.3     1  UNL1        0.1081
      8 C         138.4858  140.0273  164.8332 C.ar    1  UNL1        0.0133
      9 C         138.0904  139.9630  166.2787 C.ar    1  UNL1        0.0012
     10 C         137.9225  138.6331  166.9518 C.ar    1  UNL1        0.0001
     11 C         138.1501  137.3674  166.1794 C.ar    1  UNL1        0.0013
     12 C         138.5456  137.4318  164.7339 C.ar    1  UNL1        0.0145
     13 C         138.7134  138.7618  164.0608 C.ar    1  UNL1        0.0479
     14 C         138.9895  144.0172  162.8139 C.ar    1  UNL1        0.1387
     15 C         140.1640  143.3564  163.4726 C.ar    1  UNL1        0.0369
     16 C         139.9961  142.0265  164.1457 C.ar    1  UNL1        0.0032
     17 C         138.6537  141.3573  164.1600 C.ar    1  UNL1        0.0014
     18 C         137.4792  142.0181  163.5013 C.ar    1  UNL1        0.0032
     19 C         137.6471  143.3480  162.8283 C.ar    1  UNL1        0.0369
     20 C         140.1193  145.4938  160.9992 C.3     1  UNL1        0.2525
     21 O         139.1574  145.3472  162.1408 O.3     1  UNL1       -0.4714
     22 C         141.6920  138.6591  157.8666 C.3     1  UNL1        0.1700
     23 O         142.0079  137.2589  157.4314 O.3     1  UNL1       -0.3793
     24 H         141.2041  136.7177  157.4747 H       1  UNL1        0.2106
     25 C         142.7725  139.6993  157.8896 C.3     1  UNL1        0.2358
     26 O         143.9457  139.5418  158.8109 O.3     1  UNL1       -0.4728
     27 C         143.7760  139.7594  160.2852 C.ar    1  UNL1        0.1387
     28 C         143.0926  140.9968  160.7869 C.ar    1  UNL1        0.0369
     29 C         142.9229  141.2145  162.2613 C.ar    1  UNL1        0.0047
     30 C         143.4367  140.1948  163.2340 C.ar    1  UNL1        0.0194
     31 C         144.1201  138.9574  162.7323 C.ar    1  UNL1        0.0047
     32 C         144.2897  138.7397  161.2579 C.ar    1  UNL1        0.0369
     33 C         143.2670  140.4125  164.7084 C.ar    1  UNL1        0.1004
     34 C         142.9268  139.3600  165.7217 C.ar    1  UNL1        0.1006
     35 N         142.8573  140.0179  167.0679 N.ar    1  UNL1       -0.2875
     36 C         142.5617  139.4769  168.4353 C.ar    1  UNL1        0.0815
     37 C         142.5634  140.3949  169.6216 C.ar    1  UNL1        0.0191
     38 C         142.8606  141.8540  169.4404 C.ar    1  UNL1        0.0046
     39 C         143.1562  142.3950  168.0729 C.ar    1  UNL1        0.0374
     40 C         143.1545  141.4770  166.8867 C.ar    1  UNL1        0.1478
     41 N         143.4077  141.7208  165.4285 N.ar    1  UNL1       -0.2264
@<TRIPOS>BOND
     1    20    21    1
     2    21    14    1
     3    14    15   ar
     4    15    16   ar
     5    16    17   ar
     6    17     8    1
     7     8     9   ar
     8     9    10   ar
     9    10    11   ar
    10    11    12   ar
    11    12    13   ar
    12    13     2    1
    13     2     3    1
    14     3     4    1
    15     4     5    1
    16     5     1    1
    17     1    22    1
    18    22    23    1
    19    22    25    1
    20    25    26    1
    21    26    27    1
    22    27    28   ar
    23    28    29   ar
    24    29    30   ar
    25    30    33    1
    26    33    34   ar
    27    34    35   ar
    28    35    36   ar
    29    36    37   ar
    30    37    38   ar
    31    38    39   ar
    32    39    40   ar
    33    40    41   ar
    34    30    31   ar
    35    31    32   ar
    36     5     6    1
    37     6     7    1
    38    17    18   ar
    39    18    19   ar
    40    19    14   ar
    41    13     8   ar
    42     7     2    1
    43    32    27   ar
    44    41    33   ar
    45    40    35   ar
    46    23    24    1
@<TRIPOS>MOLECULE
*****
 41 46 0 0 0
SMALL
GASTEIGER

@<TRIPOS>ATOM
      1 C         140.1701  144.8362  162.9577 C.3     1  UNL1        0.1056
      2 N         141.5902  142.4926  166.5271 N.pl3   1  UNL1       -0.3047
      3 C         142.5036  142.7022  165.3558 C.3     1  UNL1        0.1081
      4 C         142.0302  143.4834  164.1660 C.3     1  UNL1        0.0939
      5 N         140.6435  144.0550  164.1475 N.3     1  UNL1       -0.2676
      6 C         139.7302  143.8454  165.3188 C.3     1  UNL1        0.0939
      7 C         140.2035  143.0642  166.5086 C.3     1  UNL1        0.1081
      8 C         141.7767  140.2421  167.8119 C.ar    1  UNL1        0.0133
      9 C         142.2501  139.4609  169.0017 C.ar    1  UNL1        0.0012
     10 C         143.0103  140.1489  170.0965 C.ar    1  UNL1        0.0001
     11 C         143.2972  141.6182  170.0015 C.ar    1  UNL1        0.0013
     12 C         142.8239  142.3994  168.8117 C.ar    1  UNL1        0.0145
     13 C         142.0636  141.7114  167.7169 C.ar    1  UNL1        0.0479
     14 C         139.4961  138.1780  164.5274 C.ar    1  UNL1        0.1387
     15 C         140.9950  138.2191  164.4883 C.ar    1  UNL1        0.0369
     16 C         141.7552  138.9071  165.5831 C.ar    1  UNL1        0.0032
     17 C         141.0165  139.5541  166.7170 C.ar    1  UNL1        0.0014
     18 C         139.5176  139.5130  166.7561 C.ar    1  UNL1        0.0032
     19 C         138.7574  138.8249  165.6613 C.ar    1  UNL1        0.0369
     20 C         138.2010  138.2836  162.2776 C.3     1  UNL1        0.2525
     21 O         138.7358  137.4899  163.4326 O.3     1  UNL1       -0.4714
     22 C         139.0721  144.2928  162.0922 C.3     1  UNL1        0.1700
     23 O         137.6385  144.5602  162.4431 O.3     1  UNL1       -0.3793
     24 H         137.5978  145.0947  163.2516 H       1  UNL1        0.2106
     25 C         139.4077  143.4818  160.8758 C.3     1  UNL1        0.2358
     26 O         140.8134  143.0070  160.6553 O.3     1  UNL1       -0.4728
     27 C         141.0661  141.7390  159.8950 C.ar    1  UNL1        0.1387
     28 C         140.5674  140.4303  160.4321 C.ar    1  UNL1        0.0369
     29 C         140.8202  139.1622  159.6717 C.ar    1  UNL1        0.0047
     30 C         141.5717  139.2029  158.3742 C.ar    1  UNL1        0.0194
     31 C         142.0704  140.5116  157.8371 C.ar    1  UNL1        0.0047
     32 C         141.8177  141.7796  158.5975 C.ar    1  UNL1        0.0369
     33 C         141.8245  137.9348  157.6139 C.ar    1  UNL1        0.1004
     34 C         140.8917  137.2977  156.6270 C.ar    1  UNL1        0.1006
     35 N         141.5451  136.0503  156.1101 N.ar    1  UNL1       -0.2875
     36 C         141.0957  135.0191  155.1179 C.ar    1  UNL1        0.0815
     37 C         141.9829  133.8541  154.7931 C.ar    1  UNL1        0.0191
     38 C         143.3196  133.7203  155.4605 C.ar    1  UNL1        0.0046
     39 C         143.7690  134.7516  156.4527 C.ar    1  UNL1        0.0374
     40 C         142.8818  135.9166  156.7775 C.ar    1  UNL1        0.1478
     41 N         143.0544  137.0813  157.7068 N.ar    1  UNL1       -0.2264
@<TRIPOS>BOND
     1    20    21    1
     2    21    14    1
     3    14    15   ar
     4    15    16   ar
     5    16    17   ar
     6    17     8    1
     7     8     9   ar
     8     9    10   ar
     9    10    11   ar
    10    11    12   ar
    11    12    13   ar
    12    13     2    1
    13     2     3    1
    14     3     4    1
    15     4     5    1
    16     5     1    1
    17     1    22    1
    18    22    23    1
    19    22    25    1
    20    25    26    1
    21    26    27    1
    22    27    28   ar
    23    28    29   ar
    24    29    30   ar
    25    30    33    1
    26    33    34   ar
    27    34    35   ar
    28    35    36   ar
    29    36    37   ar
    30    37    38   ar
    31    38    39   ar
    32    39    40   ar
    33    40    41   ar
    34    30    31   ar
    35    31    32   ar
    36     5     6    1
    37     6     7    1
    38    17    18   ar
    39    18    19   ar
    40    19    14   ar
    41    13     8   ar
    42     7     2    1
    43    32    27   ar
    44    41    33   ar
    45    40    35   ar
    46    23    24    1
@<TRIPOS>MOLECULE
*****
 41 46 0 0 0
SMALL
GASTEIGER

@<TRIPOS>ATOM
      1 C         138.7781  137.6130  163.5049 C.3     1  UNL1        0.1056
      2 N         141.0742  139.6195  166.8143 N.pl3   1  UNL1       -0.3047
      3 C         139.5768  139.5523  166.8741 C.3     1  UNL1        0.1081
      4 C         138.8115  138.8835  165.7710 C.3     1  UNL1        0.0939
      5 N         139.5435  138.2818  164.6081 N.3     1  UNL1       -0.2676
      6 C         141.0407  138.3490  164.5483 C.3     1  UNL1        0.0939
      7 C         141.8061  139.0179  165.6515 C.3     1  UNL1        0.1081
      8 C         142.2356  141.7293  167.7888 C.ar    1  UNL1        0.0133
      9 C         143.0010  142.3981  168.8919 C.ar    1  UNL1        0.0012
     10 C         143.3702  141.6260  170.1237 C.ar    1  UNL1        0.0001
     11 C         142.9741  140.1849  170.2524 C.ar    1  UNL1        0.0013
     12 C         142.2088  139.5161  169.1493 C.ar    1  UNL1        0.0145
     13 C         141.8395  140.2883  167.9175 C.ar    1  UNL1        0.0479
     14 C         141.1280  144.0459  164.0933 C.ar    1  UNL1        0.1387
     15 C         142.5442  143.5973  164.3009 C.ar    1  UNL1        0.0369
     16 C         142.9134  142.8251  165.5327 C.ar    1  UNL1        0.0032
     17 C         141.8664  142.5016  166.5569 C.ar    1  UNL1        0.0014
     18 C         140.4502  142.9502  166.3494 C.ar    1  UNL1        0.0032
     19 C         140.0810  143.7224  165.1176 C.ar    1  UNL1        0.0369
     20 C         141.4959  144.5789  161.5772 C.3     1  UNL1        0.2525
     21 O         140.7588  144.8182  162.8615 O.3     1  UNL1       -0.4714
     22 C         138.5558  138.3286  162.2055 C.3     1  UNL1        0.1700
     23 O         138.8376  137.6315  160.9076 O.3     1  UNL1       -0.3793
     24 H         139.1541  136.7321  161.0857 H       1  UNL1        0.2106
     25 C         138.0516  139.7414  162.2040 C.3     1  UNL1        0.2358
     26 O         139.0113  140.8804  162.3814 O.3     1  UNL1       -0.4728
     27 C         140.1829  141.0250  161.4559 C.ar    1  UNL1        0.1387
     28 C         141.5797  140.9166  161.9917 C.ar    1  UNL1        0.0369
     29 C         142.7513  141.0613  161.0663 C.ar    1  UNL1        0.0047
     30 C         142.5261  141.3143  159.6051 C.ar    1  UNL1        0.0194
     31 C         141.1293  141.4227  159.0693 C.ar    1  UNL1        0.0047
     32 C         139.9577  141.2780  159.9947 C.ar    1  UNL1        0.0369
     33 C         143.6977  141.4589  158.6796 C.ar    1  UNL1        0.1004
     34 C         144.8284  142.4324  158.8341 C.ar    1  UNL1        0.1006
     35 N         145.7738  142.2306  157.6872 N.ar    1  UNL1       -0.2875
     36 C         147.0616  142.9049  157.3175 C.ar    1  UNL1        0.0815
     37 C         147.8031  142.4811  156.0844 C.ar    1  UNL1        0.0191
     38 C         147.2567  141.3829  155.2210 C.ar    1  UNL1        0.0046
     39 C         145.9688  140.7085  155.5907 C.ar    1  UNL1        0.0374
     40 C         145.2274  141.1324  156.8238 C.ar    1  UNL1        0.1478
     41 N         143.9443  140.6555  157.4372 N.ar    1  UNL1       -0.2264
@<TRIPOS>BOND
     1    20    21    1
     2    21    14    1
     3    14    15   ar
     4    15    16   ar
     5    16    17   ar
     6    17     8    1
     7     8     9   ar
     8     9    10   ar
     9    10    11   ar
    10    11    12   ar
    11    12    13   ar
    12    13     2    1
    13     2     3    1
    14     3     4    1
    15     4     5    1
    16     5     1    1
    17     1    22    1
    18    22    23    1
    19    22    25    1
    20    25    26    1
    21    26    27    1
    22    27    28   ar
    23    28    29   ar
    24    29    30   ar
    25    30    33    1
    26    33    34   ar
    27    34    35   ar
    28    35    36   ar
    29    36    37   ar
    30    37    38   ar
    31    38    39   ar
    32    39    40   ar
    33    40    41   ar
    34    30    31   ar
    35    31    32   ar
    36     5     6    1
    37     6     7    1
    38    17    18   ar
    39    18    19   ar
    40    19    14   ar
    41    13     8   ar
    42     7     2    1
    43    32    27   ar
    44    41    33   ar
    45    40    35   ar
    46    23    24    1
@<TRIPOS>MOLECULE
*****
 41 46 0 0 0
SMALL
GASTEIGER

@<TRIPOS>ATOM
      1 C         144.1139  143.8542  163.0923 C.3     1  UNL1        0.1056
      2 N         141.6522  142.4096  166.5713 N.pl3   1  UNL1       -0.3047
      3 C         143.1417  142.2326  166.5816 C.3     1  UNL1        0.1081
      4 C         143.9623  142.7141  165.4220 C.3     1  UNL1        0.0939
      5 N         143.2933  143.3727  164.2519 N.3     1  UNL1       -0.2676
      6 C         141.8039  143.5496  164.2416 C.3     1  UNL1        0.0939
      7 C         140.9833  143.0681  165.4013 C.3     1  UNL1        0.1081
      8 C         140.0758  140.6363  167.6298 C.ar    1  UNL1        0.0133
      9 C         139.2553  140.1548  168.7895 C.ar    1  UNL1        0.0012
     10 C         139.1905  140.9649  170.0502 C.ar    1  UNL1        0.0001
     11 C         139.9464  142.2567  170.1513 C.ar    1  UNL1        0.0013
     12 C         140.7669  142.7382  168.9917 C.ar    1  UNL1        0.0145
     13 C         140.8317  141.9280  167.7309 C.ar    1  UNL1        0.0479
     14 C         140.2700  138.2058  163.8477 C.ar    1  UNL1        0.1387
     15 C         141.4574  138.2661  164.7622 C.ar    1  UNL1        0.0369
     16 C         141.3927  139.0763  166.0229 C.ar    1  UNL1        0.0032
     17 C         140.1405  139.8262  166.3691 C.ar    1  UNL1        0.0014
     18 C         138.9531  139.7659  165.4545 C.ar    1  UNL1        0.0032
     19 C         139.0179  138.9557  164.1938 C.ar    1  UNL1        0.0369
     20 C         140.1470  138.0624  161.2564 C.3     1  UNL1        0.2525
     21 O         140.3347  137.3956  162.5869 O.3     1  UNL1       -0.4714
     22 C         144.6791  142.8687  162.1128 C.3     1  UNL1        0.1700
     23 O         145.9600  142.1528  162.4237 O.3     1  UNL1       -0.3793
     24 H         146.2892  142.4404  163.2896 H       1  UNL1        0.2106
     25 C         143.9632  142.5990  160.8225 C.3     1  UNL1        0.2358
     26 O         143.1871  141.3275  160.6470 O.3     1  UNL1       -0.4728
     27 C         141.9691  141.3070  159.7717 C.ar    1  UNL1        0.1387
     28 C         140.8135  142.2144  160.0732 C.ar    1  UNL1        0.0369
     29 C         139.5956  142.1939  159.1978 C.ar    1  UNL1        0.0047
     30 C         139.5333  141.2660  158.0209 C.ar    1  UNL1        0.0194
     31 C         140.6890  140.3586  157.7195 C.ar    1  UNL1        0.0047
     32 C         141.9069  140.3791  158.5948 C.ar    1  UNL1        0.0369
     33 C         138.3154  141.2455  157.1456 C.ar    1  UNL1        0.1004
     34 C         138.1991  141.8600  155.7822 C.ar    1  UNL1        0.1006
     35 N         136.8117  141.6012  155.2739 N.ar    1  UNL1       -0.2875
     36 C         136.1276  141.9707  153.9912 C.ar    1  UNL1        0.0815
     37 C         134.7023  141.5657  153.7578 C.ar    1  UNL1        0.0191
     38 C         133.9612  140.7913  154.8071 C.ar    1  UNL1        0.0046
     39 C         134.6453  140.4218  156.0898 C.ar    1  UNL1        0.0374
     40 C         136.0706  140.8268  156.3232 C.ar    1  UNL1        0.1478
     41 N         136.9999  140.6070  157.4799 N.ar    1  UNL1       -0.2264
@<TRIPOS>BOND
     1    20    21    1
     2    21    14    1
     3    14    15   ar
     4    15    16   ar
     5    16    17   ar
     6    17     8    1
     7     8     9   ar
     8     9    10   ar
     9    10    11   ar
    10    11    12   ar
    11    12    13   ar
    12    13     2    1
    13     2     3    1
    14     3     4    1
    15     4     5    1
    16     5     1    1
    17     1    22    1
    18    22    23    1
    19    22    25    1
    20    25    26    1
    21    26    27    1
    22    27    28   ar
    23    28    29   ar
    24    29    30   ar
    25    30    33    1
    26    33    34   ar
    27    34    35   ar
    28    35    36   ar
    29    36    37   ar
    30    37    38   ar
    31    38    39   ar
    32    39    40   ar
    33    40    41   ar
    34    30    31   ar
    35    31    32   ar
    36     5     6    1
    37     6     7    1
    38    17    18   ar
    39    18    19   ar
    40    19    14   ar
    41    13     8   ar
    42     7     2    1
    43    32    27   ar
    44    41    33   ar
    45    40    35   ar
    46    23    24    1
@<TRIPOS>MOLECULE
*****
 41 46 0 0 0
SMALL
GASTEIGER

@<TRIPOS>ATOM
      1 C         139.8819  144.9593  163.1305 C.3     1  UNL1        0.1056
      2 N         141.4348  142.5477  166.5979 N.pl3   1  UNL1       -0.3047
      3 C         140.0456  143.1121  166.6393 C.3     1  UNL1        0.1081
      4 C         139.5280  143.9160  165.4835 C.3     1  UNL1        0.0939
      5 N         140.3995  144.1554  164.2863 N.3     1  UNL1       -0.2676
      6 C         141.7886  143.5910  164.2449 C.3     1  UNL1        0.0939
      7 C         142.3063  142.7871  165.4007 C.3     1  UNL1        0.1081
      8 C         141.7168  140.2633  167.8029 C.ar    1  UNL1        0.0133
      9 C         142.2344  139.4595  168.9587 C.ar    1  UNL1        0.0012
     10 C         142.9877  140.1361  170.0653 C.ar    1  UNL1        0.0001
     11 C         143.2235  141.6167  170.0161 C.ar    1  UNL1        0.0013
     12 C         142.7058  142.4206  168.8603 C.ar    1  UNL1        0.0145
     13 C         141.9525  141.7438  167.7537 C.ar    1  UNL1        0.0479
     14 C         139.4567  138.2332  164.4831 C.ar    1  UNL1        0.1387
     15 C         138.7144  138.8137  165.6501 C.ar    1  UNL1        0.0369
     16 C         139.4677  139.4904  166.7566 C.ar    1  UNL1        0.0032
     17 C         140.9634  139.5866  166.6962 C.ar    1  UNL1        0.0014
     18 C         141.7058  139.0060  165.5293 C.ar    1  UNL1        0.0032
     19 C         140.9524  138.3293  164.4227 C.ar    1  UNL1        0.0369
     20 C         138.9014  137.9962  161.9562 C.3     1  UNL1        0.2525
     21 O         138.7034  137.5564  163.3765 O.3     1  UNL1       -0.4714
     22 C         139.0717  144.2942  162.0574 C.3     1  UNL1        0.1700
     23 O         137.6043  144.0599  162.2621 O.3     1  UNL1       -0.3793
     24 H         137.3419  144.3952  163.1337 H       1  UNL1        0.2106
     25 C         139.7289  143.8634  160.7798 C.3     1  UNL1        0.2358
     26 O         140.5777  142.6270  160.7527 O.3     1  UNL1       -0.4728
     27 C         141.6980  142.5078  159.7625 C.ar    1  UNL1        0.1387
     28 C         141.9650  143.6220  158.7944 C.ar    1  UNL1        0.0369
     29 C         143.0854  143.5029  157.8042 C.ar    1  UNL1        0.0047
     30 C         143.9388  142.2696  157.7821 C.ar    1  UNL1        0.0194
     31 C         143.6719  141.1554  158.7502 C.ar    1  UNL1        0.0047
     32 C         142.5515  141.2745  159.7404 C.ar    1  UNL1        0.0369
     33 C         145.0592  142.1505  156.7919 C.ar    1  UNL1        0.1004
     34 C         144.9110  141.9641  155.3109 C.ar    1  UNL1        0.1006
     35 N         146.2847  141.8952  154.7125 N.ar    1  UNL1       -0.2875
     36 C         146.7563  141.7202  153.2994 C.ar    1  UNL1        0.0815
     37 C         148.2252  141.6889  152.9974 C.ar    1  UNL1        0.0191
     38 C         149.2226  141.8327  154.1086 C.ar    1  UNL1        0.0046
     39 C         148.7510  142.0078  155.5217 C.ar    1  UNL1        0.0374
     40 C         147.2820  142.0390  155.8236 C.ar    1  UNL1        0.1478
     41 N         146.5246  142.1968  157.1087 N.ar    1  UNL1       -0.2264
@<TRIPOS>BOND
     1    20    21    1
     2    21    14    1
     3    14    15   ar
     4    15    16   ar
     5    16    17   ar
     6    17     8    1
     7     8     9   ar
     8     9    10   ar
     9    10    11   ar
    10    11    12   ar
    11    12    13   ar
    12    13     2    1
    13     2     3    1
    14     3     4    1
    15     4     5    1
    16     5     1    1
    17     1    22    1
    18    22    23    1
    19    22    25    1
    20    25    26    1
    21    26    27    1
    22    27    28   ar
    23    28    29   ar
    24    29    30   ar
    25    30    33    1
    26    33    34   ar
    27    34    35   ar
    28    35    36   ar
    29    36    37   ar
    30    37    38   ar
    31    38    39   ar
    32    39    40   ar
    33    40    41   ar
    34    30    31   ar
    35    31    32   ar
    36     5     6    1
    37     6     7    1
    38    17    18   ar
    39    18    19   ar
    40    19    14   ar
    41    13     8   ar
    42     7     2    1
    43    32    27   ar
    44    41    33   ar
    45    40    35   ar
    46    23    24    1
@<TRIPOS>MOLECULE
*****
 41 46 0 0 0
SMALL
GASTEIGER

@<TRIPOS>ATOM
      1 C         145.2329  141.0786  163.3147 C.3     1  UNL1        0.1056
      2 N         142.5230  140.7226  166.8896 N.pl3   1  UNL1       -0.3047
      3 C         142.9748  139.4892  166.1652 C.3     1  UNL1        0.1081
      4 C         143.8781  139.6079  164.9736 C.3     1  UNL1        0.0939
      5 N         144.3296  140.9599  164.5063 N.3     1  UNL1       -0.2676
      6 C         143.8777  142.1932  165.2307 C.3     1  UNL1        0.0939
      7 C         142.9745  142.0746  166.4223 C.3     1  UNL1        0.1081
      8 C         140.1518  140.3630  167.8886 C.ar    1  UNL1        0.0133
      9 C         139.2485  140.2444  169.0803 C.ar    1  UNL1        0.0012
     10 C         139.8132  140.3666  170.4645 C.ar    1  UNL1        0.0001
     11 C         141.2811  140.6076  170.6572 C.ar    1  UNL1        0.0013
     12 C         142.1844  140.7263  169.4655 C.ar    1  UNL1        0.0145
     13 C         141.6197  140.6040  168.0812 C.ar    1  UNL1        0.0479
     14 C         138.4578  139.9962  163.7358 C.ar    1  UNL1        0.1387
     15 C         138.7817  141.3491  164.2969 C.ar    1  UNL1        0.0369
     16 C         139.3463  141.4713  165.6811 C.ar    1  UNL1        0.0032
     17 C         139.5871  140.2407  166.5043 C.ar    1  UNL1        0.0014
     18 C         139.2632  138.8879  165.9432 C.ar    1  UNL1        0.0032
     19 C         138.6986  138.7656  164.5590 C.ar    1  UNL1        0.0369
     20 C         137.7421  138.5218  161.7199 C.3     1  UNL1        0.2525
     21 O         137.8931  139.8739  162.3515 O.3     1  UNL1       -0.4714
     22 C         144.7006  141.6203  162.0211 C.3     1  UNL1        0.1700
     23 O         145.1019  142.9900  161.5598 O.3     1  UNL1       -0.3793
     24 H         145.7044  143.3861  162.2087 H       1  UNL1        0.2106
     25 C         143.7670  140.7922  161.1888 C.3     1  UNL1        0.2358
     26 O         143.6875  141.0124  159.7072 O.3     1  UNL1       -0.4728
     27 C         143.3916  139.8608  158.7926 C.ar    1  UNL1        0.1387
     28 C         143.5963  140.0058  157.3138 C.ar    1  UNL1        0.0369
     29 C         143.3004  138.8543  156.3992 C.ar    1  UNL1        0.0047
     30 C         142.7998  137.5578  156.9635 C.ar    1  UNL1        0.0194
     31 C         142.5951  137.4128  158.4423 C.ar    1  UNL1        0.0047
     32 C         142.8910  138.5643  159.3569 C.ar    1  UNL1        0.0369
     33 C         142.5039  136.4063  156.0489 C.ar    1  UNL1        0.1004
     34 C         142.3764  136.4762  154.5560 C.ar    1  UNL1        0.1006
     35 N         142.0773  135.0958  154.0511 N.ar    1  UNL1       -0.2875
     36 C         141.8497  134.5602  152.6686 C.ar    1  UNL1        0.0815
     37 C         141.5648  133.1014  152.4670 C.ar    1  UNL1        0.0191
     38 C         141.5075  132.1782  153.6479 C.ar    1  UNL1        0.0046
     39 C         141.7350  132.7138  155.0304 C.ar    1  UNL1        0.0374
     40 C         142.0200  134.1726  155.2319 C.ar    1  UNL1        0.1478
     41 N         142.2836  134.9826  156.4667 N.ar    1  UNL1       -0.2264
@<TRIPOS>BOND
     1    20    21    1
     2    21    14    1
     3    14    15   ar
     4    15    16   ar
     5    16    17   ar
     6    17     8    1
     7     8     9   ar
     8     9    10   ar
     9    10    11   ar
    10    11    12   ar
    11    12    13   ar
    12    13     2    1
    13     2     3    1
    14     3     4    1
    15     4     5    1
    16     5     1    1
    17     1    22    1
    18    22    23    1
    19    22    25    1
    20    25    26    1
    21    26    27    1
    22    27    28   ar
    23    28    29   ar
    24    29    30   ar
    25    30    33    1
    26    33    34   ar
    27    34    35   ar
    28    35    36   ar
    29    36    37   ar
    30    37    38   ar
    31    38    39   ar
    32    39    40   ar
    33    40    41   ar
    34    30    31   ar
    35    31    32   ar
    36     5     6    1
    37     6     7    1
    38    17    18   ar
    39    18    19   ar
    40    19    14   ar
    41    13     8   ar
    42     7     2    1
    43    32    27   ar
    44    41    33   ar
    45    40    35   ar
    46    23    24    1
