@<TRIPOS>MOLECULE
*****
 37 43 0 0 0
SMALL
GASTEIGER

@<TRIPOS>ATOM
      1 C         142.5268  138.8884  159.0292 C.ar    1  UNL1        0.0191
      2 C         143.8543  139.4054  159.4987 C.ar    1  UNL1        0.0028
      3 C         144.0593  139.7406  160.9464 C.ar    1  UNL1        0.0147
      4 C         142.9367  139.5588  161.9245 C.ar    1  UNL1        0.0519
      5 C         141.6092  139.0418  161.4550 C.ar    1  UNL1        0.0159
      6 C         141.4042  138.7066  160.0074 C.ar    1  UNL1        0.0005
      7 C         140.6950  138.9662  162.6419 C.3     1  UNL1        0.1495
      8 C         139.9325  138.4959  161.4389 C.3     1  UNL1        0.0332
      9 C         138.5471  138.1297  161.8823 C.3     1  UNL1        0.0240
     10 C         138.4535  138.3737  163.3594 C.3     1  UNL1        0.0941
     11 N         139.7810  138.8907  163.8289 N.am    1  UNL1       -0.2715
     12 C         140.1327  139.2662  165.2379 C.2     1  UNL1        0.2256
     13 O         140.8332  139.5417  165.5003 O.2     1  UNL1       -0.2749
     14 C         141.4577  139.4365  163.8450 C.2     1  UNL1        0.2494
     15 O         141.2642  139.5167  164.6141 O.2     1  UNL1       -0.2725
     16 N         142.8431  139.8027  163.4016 N.am    1  UNL1       -0.2556
     17 C         143.9420  140.3217  164.2808 C.3     1  UNL1        0.1201
     18 C         143.0711  134.8017  156.7898 C.ar    1  UNL1        0.1480
     19 N         143.0037  135.9079  157.8007 N.ar    1  UNL1       -0.2236
     20 C         142.5629  137.1554  157.0940 C.ar    1  UNL1        0.1345
     21 C         142.3218  138.5533  157.5816 C.ar    1  UNL1        0.1036
     22 N         141.8756  139.6160  156.6216 N.ar    1  UNL1       -0.2223
     23 C         141.6706  139.2808  155.1740 C.ar    1  UNL1        0.2003
     24 N         141.9118  137.8829  154.6863 N.ar    1  UNL1       -0.2049
     25 C         142.3580  136.8202  155.6463 C.ar    1  UNL1        0.1660
     26 N         142.6720  135.3656  155.4583 N.ar    1  UNL1       -0.2947
     27 C         142.5997  134.6078  154.1659 C.3     1  UNL1        0.1334
     28 C         144.6583  129.1193  157.8807 C.3     1  UNL1        0.0737
     29 C         144.2615  130.5398  157.6080 C.ar    1  UNL1        0.1396
     30 N         145.1129  131.6667  158.1136 N.ar    1  UNL1       -0.2290
     31 C         144.7160  133.0872  157.8409 C.ar    1  UNL1        0.1048
     32 C         143.4679  133.3811  157.0626 C.ar    1  UNL1        0.0725
     33 C         142.6166  132.2544  156.5569 C.ar    1  UNL1        0.1048
     34 N         143.0134  130.8337  156.8296 N.ar    1  UNL1       -0.2290
     35 C         139.1088  139.1368  166.3264 C.3     1  UNL1        0.0768
     36 C         137.8052  138.5871  166.8249 C.3     1  UNL1        0.0096
     37 C         138.6390  139.4623  167.7132 C.3     1  UNL1        0.0096
@<TRIPOS>BOND
     1    28    29    1
     2    29    30   ar
     3    30    31   ar
     4    31    32   ar
     5    32    18    1
     6    18    19   ar
     7    19    20   ar
     8    20    21   ar
     9    21     1    1
    10     1     2   ar
    11     2     3   ar
    12     3     4   ar
    13     4     5   ar
    14     5     6   ar
    15     5     7    1
    16     7     8    1
    17     8     9    1
    18     9    10    1
    19    10    11    1
    20    11    12   am
    21    12    13    2
    22    12    35    1
    23    35    36    1
    24    36    37    1
    25     7    14    1
    26    14    15    2
    27    14    16   am
    28    16    17    1
    29    21    22   ar
    30    22    23   ar
    31    23    24   ar
    32    24    25   ar
    33    25    26   ar
    34    26    27    1
    35    32    33   ar
    36    33    34   ar
    37    34    29   ar
    38    26    18   ar
    39    25    20   ar
    40     6     1   ar
    41    11     7    1
    42    37    35    1
    43    16     4    1
@<TRIPOS>MOLECULE
*****
 37 43 0 0 0
SMALL
GASTEIGER

@<TRIPOS>ATOM
      1 C         142.6388  136.3203  156.3922 C.ar    1  UNL1        0.0191
      2 C         141.5042  136.2049  155.4179 C.ar    1  UNL1        0.0028
      3 C         141.0709  134.8551  154.9276 C.ar    1  UNL1        0.0147
      4 C         141.7722  133.6207  155.4116 C.ar    1  UNL1        0.0519
      5 C         142.9068  133.7360  156.3860 C.ar    1  UNL1        0.0159
      6 C         143.3401  135.0858  156.8763 C.ar    1  UNL1        0.0005
      7 C         143.4047  132.3527  156.6837 C.3     1  UNL1        0.1495
      8 C         144.2316  133.3230  157.4741 C.3     1  UNL1        0.0332
      9 C         145.2404  132.5393  158.2602 C.3     1  UNL1        0.0240
     10 C         145.0370  131.0847  157.9557 C.3     1  UNL1        0.0941
     11 N         143.9024  130.9693  156.9814 N.am    1  UNL1       -0.2715
     12 C         143.3607  129.6945  156.4057 C.2     1  UNL1        0.2256
     13 O         142.7593  129.6194  155.8880 O.2     1  UNL1       -0.2749
     14 C         142.5776  131.3824  155.8933 C.2     1  UNL1        0.2494
     15 O         142.5858  130.5879  155.8283 O.2     1  UNL1       -0.2725
     16 N         141.5688  132.1661  155.1071 N.am    1  UNL1       -0.2556
     17 C         140.5375  131.5954  154.1793 C.3     1  UNL1        0.1201
     18 C         141.6913  138.4862  160.4448 C.ar    1  UNL1        0.1480
     19 N         141.7841  137.5246  159.2973 N.ar    1  UNL1       -0.2236
     20 C         142.6354  138.1527  158.2339 C.ar    1  UNL1        0.1345
     21 C         143.0721  137.6700  156.8825 C.ar    1  UNL1        0.1036
     22 N         143.9420  138.5370  156.0214 N.ar    1  UNL1       -0.2223
     23 C         144.3753  139.8868  156.5117 C.ar    1  UNL1        0.2003
     24 N         143.9386  140.3695  157.8632 N.ar    1  UNL1       -0.2049
     25 C         143.0687  139.5025  158.7243 C.ar    1  UNL1        0.1660
     26 N         142.4853  139.7086  160.0906 N.ar    1  UNL1       -0.2947
     27 C         142.6642  140.9237  160.9517 C.3     1  UNL1        0.1334
     28 C         138.6739  137.5987  165.5544 C.3     1  UNL1        0.0737
     29 C         139.4282  137.8206  164.2770 C.ar    1  UNL1        0.1396
     30 N         140.9200  137.6656  164.2503 N.ar    1  UNL1       -0.2290
     31 C         141.6743  137.8874  162.9729 C.ar    1  UNL1        0.1048
     32 C         140.9370  138.2643  161.7222 C.ar    1  UNL1        0.0725
     33 C         139.4453  138.4193  161.7489 C.ar    1  UNL1        0.1048
     34 N         138.6909  138.1974  163.0263 N.ar    1  UNL1       -0.2290
     35 C         143.9635  128.3785  156.7987 C.3     1  UNL1        0.0768
     36 C         145.1644  127.4912  156.9438 C.3     1  UNL1        0.0096
     37 C         143.8070  126.9861  157.3344 C.3     1  UNL1        0.0096
@<TRIPOS>BOND
     1    28    29    1
     2    29    30   ar
     3    30    31   ar
     4    31    32   ar
     5    32    18    1
     6    18    19   ar
     7    19    20   ar
     8    20    21   ar
     9    21     1    1
    10     1     2   ar
    11     2     3   ar
    12     3     4   ar
    13     4     5   ar
    14     5     6   ar
    15     5     7    1
    16     7     8    1
    17     8     9    1
    18     9    10    1
    19    10    11    1
    20    11    12   am
    21    12    13    2
    22    12    35    1
    23    35    36    1
    24    36    37    1
    25     7    14    1
    26    14    15    2
    27    14    16   am
    28    16    17    1
    29    21    22   ar
    30    22    23   ar
    31    23    24   ar
    32    24    25   ar
    33    25    26   ar
    34    26    27    1
    35    32    33   ar
    36    33    34   ar
    37    34    29   ar
    38    26    18   ar
    39    25    20   ar
    40     6     1   ar
    41    11     7    1
    42    37    35    1
    43    16     4    1
@<TRIPOS>MOLECULE
*****
 37 43 0 0 0
SMALL
GASTEIGER

@<TRIPOS>ATOM
      1 C         139.3141  140.4541  161.6109 C.ar    1  UNL1        0.0191
      2 C         138.6953  139.0877  161.6251 C.ar    1  UNL1        0.0028
      3 C         138.4480  138.3899  162.9297 C.ar    1  UNL1        0.0147
      4 C         138.8194  139.0584  164.2200 C.ar    1  UNL1        0.0519
      5 C         139.4383  140.4248  164.2058 C.ar    1  UNL1        0.0159
      6 C         139.6856  141.1226  162.9013 C.ar    1  UNL1        0.0005
      7 C         139.6977  140.8309  165.6263 C.3     1  UNL1        0.1495
      8 C         140.1562  141.9463  164.7342 C.3     1  UNL1        0.0332
      9 C         140.6989  143.0417  165.6034 C.3     1  UNL1        0.0240
     10 C         140.5759  142.6034  167.0327 C.3     1  UNL1        0.0941
     11 N         139.9571  141.2370  167.0468 N.am    1  UNL1       -0.2715
     12 C         139.6513  140.4202  168.2672 C.2     1  UNL1        0.2256
     13 O         139.3232  139.6941  168.2886 O.2     1  UNL1       -0.2749
     14 C         139.2391  139.7155  166.5184 C.2     1  UNL1        0.2494
     15 O         139.2369  139.6182  167.3096 O.2     1  UNL1       -0.2725
     16 N         138.6964  138.6201  165.6493 N.am    1  UNL1       -0.2556
     17 C         138.1300  137.3154  166.1257 C.3     1  UNL1        0.1201
     18 C         140.9547  138.7480  157.5599 C.ar    1  UNL1        0.1480
     19 N         140.4745  138.9416  158.9678 N.ar    1  UNL1       -0.2236
     20 C         140.0978  140.3838  159.1349 C.ar    1  UNL1        0.1345
     21 C         139.5615  141.1519  160.3064 C.ar    1  UNL1        0.1036
     22 N         139.2725  142.6178  160.1733 N.ar    1  UNL1       -0.2223
     23 C         139.5199  143.3156  158.8688 C.ar    1  UNL1        0.2003
     24 N         140.0562  142.5475  157.6972 N.ar    1  UNL1       -0.2049
     25 C         140.3451  141.0816  157.8303 C.ar    1  UNL1        0.1660
     26 N         140.8747  140.0707  156.8569 N.ar    1  UNL1       -0.2947
     27 C         141.2572  140.3358  155.4310 C.3     1  UNL1        0.1334
     28 C         142.8606  133.5890  155.1616 C.3     1  UNL1        0.0737
     29 C         142.3841  134.8787  155.7612 C.ar    1  UNL1        0.1396
     30 N         141.0700  135.4635  155.3354 N.ar    1  UNL1       -0.2290
     31 C         140.5935  136.7532  155.9350 C.ar    1  UNL1        0.1048
     32 C         141.4311  137.4583  156.9603 C.ar    1  UNL1        0.0725
     33 C         142.7452  136.8736  157.3861 C.ar    1  UNL1        0.1048
     34 N         143.2217  135.5838  156.7865 N.ar    1  UNL1       -0.2290
     35 C         139.9685  140.9605  169.6301 C.3     1  UNL1        0.0768
     36 C         139.9171  142.0789  170.6285 C.3     1  UNL1        0.0096
     37 C         140.5692  140.7779  170.9924 C.3     1  UNL1        0.0096
@<TRIPOS>BOND
     1    28    29    1
     2    29    30   ar
     3    30    31   ar
     4    31    32   ar
     5    32    18    1
     6    18    19   ar
     7    19    20   ar
     8    20    21   ar
     9    21     1    1
    10     1     2   ar
    11     2     3   ar
    12     3     4   ar
    13     4     5   ar
    14     5     6   ar
    15     5     7    1
    16     7     8    1
    17     8     9    1
    18     9    10    1
    19    10    11    1
    20    11    12   am
    21    12    13    2
    22    12    35    1
    23    35    36    1
    24    36    37    1
    25     7    14    1
    26    14    15    2
    27    14    16   am
    28    16    17    1
    29    21    22   ar
    30    22    23   ar
    31    23    24   ar
    32    24    25   ar
    33    25    26   ar
    34    26    27    1
    35    32    33   ar
    36    33    34   ar
    37    34    29   ar
    38    26    18   ar
    39    25    20   ar
    40     6     1   ar
    41    11     7    1
    42    37    35    1
    43    16     4    1
@<TRIPOS>MOLECULE
*****
 37 43 0 0 0
SMALL
GASTEIGER

@<TRIPOS>ATOM
      1 C         143.5022  140.4134  161.0990 C.ar    1  UNL1        0.0191
      2 C         144.1703  139.1344  161.5086 C.ar    1  UNL1        0.0028
      3 C         144.1079  138.6797  162.9367 C.ar    1  UNL1        0.0147
      4 C         143.3776  139.5039  163.9551 C.ar    1  UNL1        0.0519
      5 C         142.7095  140.7829  163.5454 C.ar    1  UNL1        0.0159
      6 C         142.7718  141.2377  162.1174 C.ar    1  UNL1        0.0005
      7 C         142.0677  141.3811  164.7622 C.3     1  UNL1        0.1495
      8 C         141.7963  142.2904  163.6006 C.3     1  UNL1        0.0332
      9 C         140.9868  143.4505  164.0994 C.3     1  UNL1        0.0240
     10 C         140.7580  143.2582  165.5693 C.3     1  UNL1        0.0941
     11 N         141.4260  141.9792  165.9790 N.am    1  UNL1       -0.2715
     12 C         141.4485  141.3999  167.3624 C.2     1  UNL1        0.2256
     13 O         141.7992  140.7223  167.5932 O.2     1  UNL1       -0.2749
     14 C         142.3392  140.4716  165.9238 C.2     1  UNL1        0.2494
     15 O         142.1411  140.5014  166.6954 O.2     1  UNL1       -0.2725
     16 N         143.1487  139.3115  165.4250 N.am    1  UNL1       -0.2556
     17 C         143.6427  138.1610  166.2510 C.3     1  UNL1        0.1201
     18 C         142.8615  137.9738  157.1429 C.ar    1  UNL1        0.1480
     19 N         142.9981  138.4245  158.5671 N.ar    1  UNL1       -0.2236
     20 C         143.3200  139.8895  158.5609 C.ar    1  UNL1        0.1345
     21 C         143.5645  140.8682  159.6710 C.ar    1  UNL1        0.1036
     22 N         143.8712  142.3017  159.3531 N.ar    1  UNL1       -0.2223
     23 C         143.9335  142.7565  157.9251 C.ar    1  UNL1        0.2003
     24 N         143.6891  141.7778  156.8149 N.ar    1  UNL1       -0.2049
     25 C         143.3823  140.3443  157.1328 C.ar    1  UNL1        0.1660
     26 N         143.0989  139.1604  156.2565 N.ar    1  UNL1       -0.2947
     27 C         143.0598  139.1625  154.7570 C.3     1  UNL1        0.1334
     28 C         141.5885  132.4032  155.3133 C.3     1  UNL1        0.0737
     29 C         141.9068  133.7959  155.7707 C.ar    1  UNL1        0.1396
     30 N         143.0317  134.0299  156.7350 N.ar    1  UNL1       -0.2290
     31 C         143.3499  135.4226  157.1924 C.ar    1  UNL1        0.1048
     32 C         142.5433  136.5812  156.6855 C.ar    1  UNL1        0.0725
     33 C         141.4184  136.3472  155.7213 C.ar    1  UNL1        0.1048
     34 N         141.1001  134.9545  155.2638 N.ar    1  UNL1       -0.2290
     35 C         140.7587  142.1150  168.4861 C.3     1  UNL1        0.0768
     36 C         140.3500  143.3937  169.1557 C.3     1  UNL1        0.0096
     37 C         139.9725  142.0750  169.7630 C.3     1  UNL1        0.0096
@<TRIPOS>BOND
     1    28    29    1
     2    29    30   ar
     3    30    31   ar
     4    31    32   ar
     5    32    18    1
     6    18    19   ar
     7    19    20   ar
     8    20    21   ar
     9    21     1    1
    10     1     2   ar
    11     2     3   ar
    12     3     4   ar
    13     4     5   ar
    14     5     6   ar
    15     5     7    1
    16     7     8    1
    17     8     9    1
    18     9    10    1
    19    10    11    1
    20    11    12   am
    21    12    13    2
    22    12    35    1
    23    35    36    1
    24    36    37    1
    25     7    14    1
    26    14    15    2
    27    14    16   am
    28    16    17    1
    29    21    22   ar
    30    22    23   ar
    31    23    24   ar
    32    24    25   ar
    33    25    26   ar
    34    26    27    1
    35    32    33   ar
    36    33    34   ar
    37    34    29   ar
    38    26    18   ar
    39    25    20   ar
    40     6     1   ar
    41    11     7    1
    42    37    35    1
    43    16     4    1
@<TRIPOS>MOLECULE
*****
 37 43 0 0 0
SMALL
GASTEIGER

@<TRIPOS>ATOM
      1 C         141.5965  139.7475  161.4514 C.ar    1  UNL1        0.0191
      2 C         140.7088  138.5427  161.3495 C.ar    1  UNL1        0.0028
      3 C         139.9530  138.0640  162.5536 C.ar    1  UNL1        0.0147
      4 C         140.0849  138.7902  163.8594 C.ar    1  UNL1        0.0519
      5 C         140.9726  139.9950  163.9613 C.ar    1  UNL1        0.0159
      6 C         141.7284  140.4737  162.7573 C.ar    1  UNL1        0.0005
      7 C         140.9044  140.5033  165.3709 C.3     1  UNL1        0.1495
      8 C         141.8343  141.3940  164.6015 C.3     1  UNL1        0.0332
      9 C         142.3407  142.4527  165.5357 C.3     1  UNL1        0.0240
     10 C         141.7238  142.2164  166.8824 C.3     1  UNL1        0.0941
     11 N         140.8361  141.0116  166.7806 N.am    1  UNL1       -0.2715
     12 C         140.0229  140.4190  167.8930 C.2     1  UNL1        0.2256
     13 O         139.5478  139.7802  167.8523 O.2     1  UNL1       -0.2749
     14 C         139.9744  139.6126  166.1403 C.2     1  UNL1        0.2494
     15 O         139.7269  139.6100  166.8980 O.2     1  UNL1       -0.2725
     16 N         139.4680  138.5539  165.2061 N.am    1  UNL1       -0.2556
     17 C         138.5124  137.4522  165.5570 C.3     1  UNL1        0.1201
     18 C         142.5822  137.5140  157.4448 C.ar    1  UNL1        0.1480
     19 N         142.0993  137.9067  158.8096 N.ar    1  UNL1       -0.2236
     20 C         142.5408  139.3164  159.0698 C.ar    1  UNL1        0.1345
     21 C         142.3523  140.2261  160.2474 C.ar    1  UNL1        0.1036
     22 N         142.9196  141.6144  160.2211 N.ar    1  UNL1       -0.2223
     23 C         143.6755  142.0931  159.0171 C.ar    1  UNL1        0.2003
     24 N         143.8640  141.1834  157.8394 N.ar    1  UNL1       -0.2049
     25 C         143.2967  139.7950  157.8657 C.ar    1  UNL1        0.1660
     26 N         143.3223  138.6812  156.8615 N.ar    1  UNL1       -0.2947
     27 C         143.9735  138.7263  155.5110 C.3     1  UNL1        0.1334
     28 C         141.7074  132.2070  154.7859 C.3     1  UNL1        0.0737
     29 C         141.9261  133.5338  155.4506 C.ar    1  UNL1        0.1396
     30 N         142.9731  133.6757  156.5154 N.ar    1  UNL1       -0.2290
     31 C         143.1918  135.0024  157.1801 C.ar    1  UNL1        0.1048
     32 C         142.3635  136.1873  156.7801 C.ar    1  UNL1        0.0725
     33 C         141.3166  136.0454  155.7154 C.ar    1  UNL1        0.1048
     34 N         141.0979  134.7186  155.0506 N.ar    1  UNL1       -0.2290
     35 C         140.0549  141.0396  169.2582 C.3     1  UNL1        0.0768
     36 C         139.8603  142.2312  170.1484 C.3     1  UNL1        0.0096
     37 C         140.3049  140.9230  170.7326 C.3     1  UNL1        0.0096
@<TRIPOS>BOND
     1    28    29    1
     2    29    30   ar
     3    30    31   ar
     4    31    32   ar
     5    32    18    1
     6    18    19   ar
     7    19    20   ar
     8    20    21   ar
     9    21     1    1
    10     1     2   ar
    11     2     3   ar
    12     3     4   ar
    13     4     5   ar
    14     5     6   ar
    15     5     7    1
    16     7     8    1
    17     8     9    1
    18     9    10    1
    19    10    11    1
    20    11    12   am
    21    12    13    2
    22    12    35    1
    23    35    36    1
    24    36    37    1
    25     7    14    1
    26    14    15    2
    27    14    16   am
    28    16    17    1
    29    21    22   ar
    30    22    23   ar
    31    23    24   ar
    32    24    25   ar
    33    25    26   ar
    34    26    27    1
    35    32    33   ar
    36    33    34   ar
    37    34    29   ar
    38    26    18   ar
    39    25    20   ar
    40     6     1   ar
    41    11     7    1
    42    37    35    1
    43    16     4    1
@<TRIPOS>MOLECULE
*****
 37 43 0 0 0
SMALL
GASTEIGER

@<TRIPOS>ATOM
      1 C         142.4814  136.9175  156.6838 C.ar    1  UNL1        0.0191
      2 C         141.7157  137.1371  155.4128 C.ar    1  UNL1        0.0028
      3 C         141.6362  136.0455  154.3870 C.ar    1  UNL1        0.0147
      4 C         142.3222  134.7344  154.6323 C.ar    1  UNL1        0.0519
      5 C         143.0879  134.5148  155.9034 C.ar    1  UNL1        0.0159
      6 C         143.1674  135.6063  156.9291 C.ar    1  UNL1        0.0005
      7 C         143.6575  133.1275  155.8677 C.3     1  UNL1        0.1495
      8 C         144.0711  133.7653  157.1608 C.3     1  UNL1        0.0332
      9 C         144.8963  132.7722  157.9242 C.3     1  UNL1        0.0240
     10 C         144.9927  131.5207  157.1029 C.3     1  UNL1        0.0941
     11 N         144.2271  131.7404  155.8319 N.am    1  UNL1       -0.2715
     12 C         144.0603  130.7472  154.7202 C.2     1  UNL1        0.2256
     13 O         143.6568  130.8510  154.0407 O.2     1  UNL1       -0.2749
     14 C         143.2439  132.4898  154.5744 C.2     1  UNL1        0.2494
     15 O         143.3790  131.7723  154.2545 O.2     1  UNL1       -0.2725
     16 N         142.4186  133.4829  153.8110 N.am    1  UNL1       -0.2556
     17 C         141.7987  133.2631  152.4629 C.3     1  UNL1        0.1201
     18 C         144.8925  140.9414  156.6017 C.ar    1  UNL1        0.1480
     19 N         144.2777  139.6084  156.2933 N.ar    1  UNL1       -0.2236
     20 C         143.4117  139.2177  157.4541 C.ar    1  UNL1        0.1345
     21 C         142.5610  138.0090  157.7096 C.ar    1  UNL1        0.1036
     22 N         141.7898  137.8919  158.9908 N.ar    1  UNL1       -0.2223
     23 C         141.8694  138.9834  160.0166 C.ar    1  UNL1        0.2003
     24 N         142.7202  140.1921  159.7611 N.ar    1  UNL1       -0.2049
     25 C         143.4913  140.3093  158.4799 C.ar    1  UNL1        0.1660
     26 N         144.4065  141.3746  157.9531 N.ar    1  UNL1       -0.2947
     27 C         144.7716  142.6492  158.6544 C.3     1  UNL1        0.1334
     28 C         148.6382  144.0033  153.0529 C.3     1  UNL1        0.0737
     29 C         147.7018  143.2378  153.9401 C.ar    1  UNL1        0.1396
     30 N         146.2339  143.5463  153.9249 N.ar    1  UNL1       -0.2290
     31 C         145.2975  142.7808  154.8121 C.ar    1  UNL1        0.1048
     32 C         145.8289  141.7069  155.7145 C.ar    1  UNL1        0.0725
     33 C         147.2968  141.3984  155.7296 C.ar    1  UNL1        0.1048
     34 N         148.2333  142.1639  154.8424 N.ar    1  UNL1       -0.2290
     35 C         144.6916  129.3906  154.8256 C.3     1  UNL1        0.0768
     36 C         145.1575  128.2360  155.6622 C.3     1  UNL1        0.0096
     37 C         145.3191  128.1955  154.1714 C.3     1  UNL1        0.0096
@<TRIPOS>BOND
     1    28    29    1
     2    29    30   ar
     3    30    31   ar
     4    31    32   ar
     5    32    18    1
     6    18    19   ar
     7    19    20   ar
     8    20    21   ar
     9    21     1    1
    10     1     2   ar
    11     2     3   ar
    12     3     4   ar
    13     4     5   ar
    14     5     6   ar
    15     5     7    1
    16     7     8    1
    17     8     9    1
    18     9    10    1
    19    10    11    1
    20    11    12   am
    21    12    13    2
    22    12    35    1
    23    35    36    1
    24    36    37    1
    25     7    14    1
    26    14    15    2
    27    14    16   am
    28    16    17    1
    29    21    22   ar
    30    22    23   ar
    31    23    24   ar
    32    24    25   ar
    33    25    26   ar
    34    26    27    1
    35    32    33   ar
    36    33    34   ar
    37    34    29   ar
    38    26    18   ar
    39    25    20   ar
    40     6     1   ar
    41    11     7    1
    42    37    35    1
    43    16     4    1
@<TRIPOS>MOLECULE
*****
 37 43 0 0 0
SMALL
GASTEIGER

@<TRIPOS>ATOM
      1 C         140.1070  144.5680  159.8130 C.ar    1  UNL1        0.0191
      2 C         140.0425  145.7877  160.6838 C.ar    1  UNL1        0.0028
      3 C         139.7157  145.6521  162.1415 C.ar    1  UNL1        0.0147
      4 C         139.4533  144.2969  162.7284 C.ar    1  UNL1        0.0519
      5 C         139.5177  143.0772  161.8576 C.ar    1  UNL1        0.0159
      6 C         139.8445  143.2127  160.4000 C.ar    1  UNL1        0.0005
      7 C         139.2141  141.8816  162.7112 C.3     1  UNL1        0.1495
      8 C         139.4662  141.4008  161.3129 C.3     1  UNL1        0.0332
      9 C         139.3183  139.9082  161.3024 C.3     1  UNL1        0.0240
     10 C         138.9749  139.4665  162.6941 C.3     1  UNL1        0.0941
     11 N         138.9104  140.6862  163.5648 N.am    1  UNL1       -0.2715
     12 C         138.5973  140.7068  165.0317 C.2     1  UNL1        0.2256
     13 O         138.5599  141.3469  165.5052 O.2     1  UNL1       -0.2749
     14 C         138.9620  142.3625  164.1096 C.2     1  UNL1        0.2494
     15 O         138.7784  141.9875  164.7886 O.2     1  UNL1       -0.2725
     16 N         139.1098  143.8552  164.1201 N.am    1  UNL1       -0.2556
     17 C         138.9434  144.7492  165.3130 C.3     1  UNL1        0.1201
     18 C         141.4998  141.3120  156.7356 C.ar    1  UNL1        0.1480
     19 N         141.0547  142.0644  157.9545 N.ar    1  UNL1       -0.2236
     20 C         140.8634  143.5011  157.5682 C.ar    1  UNL1        0.1345
     21 C         140.4338  144.7035  158.3554 C.ar    1  UNL1        0.1036
     22 N         140.3310  146.0414  157.6849 N.ar    1  UNL1       -0.2223
     23 C         140.6578  146.1769  156.2273 C.ar    1  UNL1        0.2003
     24 N         141.0875  144.9745  155.4400 N.ar    1  UNL1       -0.2049
     25 C         141.1902  143.6366  156.1105 C.ar    1  UNL1        0.1660
     26 N         141.5835  142.2837  155.5959 N.ar    1  UNL1       -0.2947
     27 C         141.9894  141.9593  154.1888 C.3     1  UNL1        0.1334
     28 C         142.7292  135.4455  156.4658 C.3     1  UNL1        0.0737
     29 C         142.4219  136.9121  156.5333 C.ar    1  UNL1        0.1396
     30 N         143.5191  137.8964  156.8114 N.ar    1  UNL1       -0.2290
     31 C         143.2118  139.3630  156.8789 C.ar    1  UNL1        0.1048
     32 C         141.8072  139.8454  156.6681 C.ar    1  UNL1        0.0725
     33 C         140.7099  138.8612  156.3900 C.ar    1  UNL1        0.1048
     34 N         141.0173  137.3945  156.3225 N.ar    1  UNL1       -0.2290
     35 C         138.3128  139.4244  165.7559 C.3     1  UNL1        0.0768
     36 C         138.4131  137.9301  165.8399 C.3     1  UNL1        0.0096
     37 C         137.7196  138.6976  166.9263 C.3     1  UNL1        0.0096
@<TRIPOS>BOND
     1    28    29    1
     2    29    30   ar
     3    30    31   ar
     4    31    32   ar
     5    32    18    1
     6    18    19   ar
     7    19    20   ar
     8    20    21   ar
     9    21     1    1
    10     1     2   ar
    11     2     3   ar
    12     3     4   ar
    13     4     5   ar
    14     5     6   ar
    15     5     7    1
    16     7     8    1
    17     8     9    1
    18     9    10    1
    19    10    11    1
    20    11    12   am
    21    12    13    2
    22    12    35    1
    23    35    36    1
    24    36    37    1
    25     7    14    1
    26    14    15    2
    27    14    16   am
    28    16    17    1
    29    21    22   ar
    30    22    23   ar
    31    23    24   ar
    32    24    25   ar
    33    25    26   ar
    34    26    27    1
    35    32    33   ar
    36    33    34   ar
    37    34    29   ar
    38    26    18   ar
    39    25    20   ar
    40     6     1   ar
    41    11     7    1
    42    37    35    1
    43    16     4    1
@<TRIPOS>MOLECULE
*****
 37 43 0 0 0
SMALL
GASTEIGER

@<TRIPOS>ATOM
      1 C         139.3282  141.1669  158.6290 C.ar    1  UNL1        0.0191
      2 C         138.6007  142.3737  159.1430 C.ar    1  UNL1        0.0028
      3 C         138.7087  142.7549  160.5898 C.ar    1  UNL1        0.0147
      4 C         139.5442  141.9291  161.5225 C.ar    1  UNL1        0.0519
      5 C         140.2717  140.7222  161.0086 C.ar    1  UNL1        0.0159
      6 C         140.1638  140.3411  159.5619 C.ar    1  UNL1        0.0005
      7 C         141.0146  140.1051  162.1563 C.3     1  UNL1        0.1495
      8 C         141.2830  139.2796  160.9330 C.3     1  UNL1        0.0332
      9 C         142.1918  138.1524  161.3247 C.3     1  UNL1        0.0240
     10 C         142.4850  138.2811  162.7901 C.3     1  UNL1        0.0941
     11 N         141.7575  139.4880  163.3041 N.am    1  UNL1       -0.2715
     12 C         141.7705  139.9897  164.7176 C.2     1  UNL1        0.2256
     13 O         141.3890  140.6286  165.0035 O.2     1  UNL1       -0.2749
     14 C         140.7462  140.9306  163.3797 C.2     1  UNL1        0.2494
     15 O         140.9864  140.8734  164.1376 O.2     1  UNL1       -0.2725
     16 N         139.8375  142.0579  162.9880 N.am    1  UNL1       -0.2556
     17 C         139.3139  143.1264  163.9013 C.3     1  UNL1        0.1201
     18 C         135.5156  140.3781  156.0110 C.ar    1  UNL1        0.1480
     19 N         136.4821  140.6929  157.1141 N.ar    1  UNL1       -0.2236
     20 C         137.8711  140.5856  156.5582 C.ar    1  UNL1        0.1345
     21 C         139.2203  140.7857  157.1823 C.ar    1  UNL1        0.1036
     22 N         140.4615  140.6047  156.3597 N.ar    1  UNL1       -0.2223
     23 C         140.3535  140.2236  154.9130 C.ar    1  UNL1        0.2003
     24 N         139.0043  140.0234  154.2888 N.ar    1  UNL1       -0.2049
     25 C         137.7631  140.2045  155.1114 C.ar    1  UNL1        0.1660
     26 N         136.3074  140.0762  154.7732 N.ar    1  UNL1       -0.2947
     27 C         135.7425  139.7103  153.4327 C.3     1  UNL1        0.1334
     28 C         129.5333  140.3340  156.4691 C.3     1  UNL1        0.0737
     29 C         131.0289  140.3450  156.3545 C.ar    1  UNL1        0.1396
     30 N         131.7059  141.3477  155.4677 N.ar    1  UNL1       -0.2290
     31 C         133.2014  141.3587  155.3532 C.ar    1  UNL1        0.1048
     32 C         134.0201  140.3671  156.1255 C.ar    1  UNL1        0.0725
     33 C         133.3432  139.3645  157.0123 C.ar    1  UNL1        0.1048
     34 N         131.8476  139.3534  157.1269 N.ar    1  UNL1       -0.2290
     35 C         142.5641  139.2644  165.7636 C.3     1  UNL1        0.0768
     36 C         143.5754  138.2208  166.1356 C.3     1  UNL1        0.0096
     37 C         142.9273  139.0515  167.2033 C.3     1  UNL1        0.0096
@<TRIPOS>BOND
     1    28    29    1
     2    29    30   ar
     3    30    31   ar
     4    31    32   ar
     5    32    18    1
     6    18    19   ar
     7    19    20   ar
     8    20    21   ar
     9    21     1    1
    10     1     2   ar
    11     2     3   ar
    12     3     4   ar
    13     4     5   ar
    14     5     6   ar
    15     5     7    1
    16     7     8    1
    17     8     9    1
    18     9    10    1
    19    10    11    1
    20    11    12   am
    21    12    13    2
    22    12    35    1
    23    35    36    1
    24    36    37    1
    25     7    14    1
    26    14    15    2
    27    14    16   am
    28    16    17    1
    29    21    22   ar
    30    22    23   ar
    31    23    24   ar
    32    24    25   ar
    33    25    26   ar
    34    26    27    1
    35    32    33   ar
    36    33    34   ar
    37    34    29   ar
    38    26    18   ar
    39    25    20   ar
    40     6     1   ar
    41    11     7    1
    42    37    35    1
    43    16     4    1
@<TRIPOS>MOLECULE
*****
 37 43 0 0 0
SMALL
GASTEIGER

@<TRIPOS>ATOM
      1 C         141.9507  138.7877  158.6005 C.ar    1  UNL1        0.0191
      2 C         142.9789  138.1468  159.4849 C.ar    1  UNL1        0.0028
      3 C         143.0880  138.5532  160.9247 C.ar    1  UNL1        0.0147
      4 C         142.1689  139.6004  161.4801 C.ar    1  UNL1        0.0519
      5 C         141.1407  140.2413  160.5958 C.ar    1  UNL1        0.0159
      6 C         141.0316  139.8350  159.1560 C.ar    1  UNL1        0.0005
      7 C         140.3781  141.2375  161.4181 C.3     1  UNL1        0.1495
      8 C         139.8212  141.2628  160.0255 C.3     1  UNL1        0.0332
      9 C         138.7145  142.2745  159.9872 C.3     1  UNL1        0.0240
     10 C         138.5874  142.8746  161.3561 C.3     1  UNL1        0.0941
     11 N         139.6156  142.2337  162.2404 N.am    1  UNL1       -0.2715
     12 C         139.8416  142.5359  163.6921 C.2     1  UNL1        0.2256
     13 O         140.3836  142.2032  164.1727 O.2     1  UNL1       -0.2749
     14 C         140.9351  141.2123  162.8107 C.2     1  UNL1        0.2494
     15 O         140.7550  141.6134  163.4755 O.2     1  UNL1       -0.2725
     16 N         142.0418  140.2005  162.8490 N.am    1  UNL1       -0.2556
     17 C         142.8752  139.8502  164.0460 C.3     1  UNL1        0.1201
     18 C         142.8606  134.6561  156.5721 C.ar    1  UNL1        0.1480
     19 N         142.6731  135.7961  157.5289 N.ar    1  UNL1       -0.2236
     20 C         142.1933  136.9831  156.7474 C.ar    1  UNL1        0.1345
     21 C         141.8416  138.3814  157.1608 C.ar    1  UNL1        0.1036
     22 N         141.3809  139.3735  156.1343 N.ar    1  UNL1       -0.2223
     23 C         141.2718  138.9672  154.6946 C.ar    1  UNL1        0.2003
     24 N         141.6234  137.5688  154.2812 N.ar    1  UNL1       -0.2049
     25 C         142.0842  136.5767  155.3076 C.ar    1  UNL1        0.1660
     26 N         142.4966  135.1387  155.1992 N.ar    1  UNL1       -0.2947
     27 C         142.5378  134.3257  153.9393 C.3     1  UNL1        0.1334
     28 C         144.7367  129.1357  157.9878 C.3     1  UNL1        0.0737
     29 C         144.2677  130.5158  157.6339 C.ar    1  UNL1        0.1396
     30 N         145.0627  131.7121  158.0663 N.ar    1  UNL1       -0.2290
     31 C         144.5937  133.0921  157.7123 C.ar    1  UNL1        0.1048
     32 C         143.3296  133.2760  156.9261 C.ar    1  UNL1        0.0725
     33 C         142.5345  132.0799  156.4937 C.ar    1  UNL1        0.1048
     34 N         143.0036  130.6997  156.8476 N.ar    1  UNL1       -0.2290
     35 C         138.9962  143.5632  164.3848 C.3     1  UNL1        0.0768
     36 C         137.6495  144.1587  164.6711 C.3     1  UNL1        0.0096
     37 C         138.8785  144.7472  165.2983 C.3     1  UNL1        0.0096
@<TRIPOS>BOND
     1    28    29    1
     2    29    30   ar
     3    30    31   ar
     4    31    32   ar
     5    32    18    1
     6    18    19   ar
     7    19    20   ar
     8    20    21   ar
     9    21     1    1
    10     1     2   ar
    11     2     3   ar
    12     3     4   ar
    13     4     5   ar
    14     5     6   ar
    15     5     7    1
    16     7     8    1
    17     8     9    1
    18     9    10    1
    19    10    11    1
    20    11    12   am
    21    12    13    2
    22    12    35    1
    23    35    36    1
    24    36    37    1
    25     7    14    1
    26    14    15    2
    27    14    16   am
    28    16    17    1
    29    21    22   ar
    30    22    23   ar
    31    23    24   ar
    32    24    25   ar
    33    25    26   ar
    34    26    27    1
    35    32    33   ar
    36    33    34   ar
    37    34    29   ar
    38    26    18   ar
    39    25    20   ar
    40     6     1   ar
    41    11     7    1
    42    37    35    1
    43    16     4    1
