@<TRIPOS>MOLECULE
*****
 32 36 0 0 0
SMALL
GASTEIGER

@<TRIPOS>ATOM
      1 C         137.7362  139.2460  162.4045 C.3     1  UNL1        0.0731
      2 N         138.0599  140.5050  163.1530 N.3     1  UNL1       -0.2712
      3 C         137.4491  141.8541  162.9147 C.3     1  UNL1        0.0738
      4 C         138.0629  142.8188  163.8857 C.3     1  UNL1        0.0372
      5 C         138.0647  144.2488  164.3385 C.3     1  UNL1        0.0245
      6 C         139.0560  144.3797  165.4568 C.3     1  UNL1        0.0909
      7 N         139.6667  143.0304  165.6951 N.pl3   1  UNL1       -0.3077
      8 C         139.0529  142.0658  164.7241 C.3     1  UNL1        0.0901
      9 C         139.0511  140.6358  164.2713 C.3     1  UNL1        0.0921
     10 C         140.7083  142.7034  166.7237 C.ar    1  UNL1        0.0485
     11 C         142.1280  142.4632  166.3034 C.ar    1  UNL1        0.0146
     12 C         143.1696  142.1361  167.3320 C.ar    1  UNL1        0.0020
     13 C         142.7915  142.0492  168.7810 C.ar    1  UNL1        0.0104
     14 C         141.3717  142.2894  169.2013 C.ar    1  UNL1        0.0697
     15 C         140.3301  142.6165  168.1727 C.ar    1  UNL1        0.0248
     16 C         140.9936  142.2025  170.6502 C.1     1  UNL1        0.1005
     17 N         140.6155  142.1155  172.0992 N.1     1  UNL1       -0.1908
     18 C         138.8089  138.2295  162.1475 C.3     1  UNL1        0.0294
     19 C         139.3644  138.0585  160.7647 C.3     1  UNL1        0.0666
     20 S         140.7010  138.6430  160.4157 S.3     1  UNL1       -0.0756
     21 C         142.2766  141.4536  162.5798 C.ar    1  UNL1        0.2029
     22 N         142.7883  140.2287  163.2783 N.ar    1  UNL1       -0.1250
     23 N         142.2603  139.0267  162.5526 N.ar    1  UNL1       -0.1220
     24 C         141.4224  139.5088  161.4057 C.ar    1  UNL1        0.1933
     25 N         141.4324  141.0087  161.4225 N.ar    1  UNL1       -0.2860
     26 C         140.7229  141.9061  160.4523 C.3     1  UNL1        0.1341
     27 C         145.1829  142.6646  163.4380 C.3     1  UNL1        0.0556
     28 C         143.8954  143.4307  163.3647 C.ar    1  UNL1        0.1001
     29 N         143.7176  144.8879  163.6729 N.ar    1  UNL1       -0.2085
     30 C         142.2719  145.2319  163.4689 C.ar    1  UNL1        0.2849
     31 O         141.5561  143.9872  163.0346 O.2     1  UNL1       -0.4283
     32 C         142.5595  142.8741  162.9702 C.ar    1  UNL1        0.1964
@<TRIPOS>BOND
     1    27    28    1
     2    28    29   ar
     3    29    30   ar
     4    30    31   ar
     5    31    32   ar
     6    32    21    1
     7    21    22   ar
     8    22    23   ar
     9    23    24   ar
    10    24    20    1
    11    20    19    1
    12    19    18    1
    13    18     1    1
    14     1     2    1
    15     2     3    1
    16     3     4    1
    17     4     5    1
    18     5     6    1
    19     6     7    1
    20     7    10    1
    21    10    11   ar
    22    11    12   ar
    23    12    13   ar
    24    13    14   ar
    25    14    16    1
    26    16    17    3
    27    14    15   ar
    28     7     8    1
    29     8     9    1
    30    24    25   ar
    31    25    26    1
    32    32    28   ar
    33    25    21   ar
    34     9     2    1
    35     8     4    1
    36    15    10   ar
@<TRIPOS>MOLECULE
*****
 32 36 0 0 0
SMALL
GASTEIGER

@<TRIPOS>ATOM
      1 C         137.7763  139.1207  162.3417 C.3     1  UNL1        0.0731
      2 N         138.0809  140.4050  163.0543 N.3     1  UNL1       -0.2712
      3 C         137.4321  141.7324  162.7952 C.3     1  UNL1        0.0738
      4 C         138.0380  142.7351  163.7319 C.3     1  UNL1        0.0372
      5 C         138.0115  144.1752  164.1508 C.3     1  UNL1        0.0245
      6 C         139.0184  144.3576  165.2476 C.3     1  UNL1        0.0909
      7 N         139.6671  143.0301  165.5067 N.pl3   1  UNL1       -0.3077
      8 C         139.0612  142.0274  164.5700 C.3     1  UNL1        0.0901
      9 C         139.0877  140.5873  164.1512 C.3     1  UNL1        0.0921
     10 C         140.7344  142.7539  166.5239 C.ar    1  UNL1        0.0485
     11 C         142.1590  142.5800  166.0879 C.ar    1  UNL1        0.0146
     12 C         143.2263  142.3039  167.1051 C.ar    1  UNL1        0.0020
     13 C         142.8689  142.2015  168.5583 C.ar    1  UNL1        0.0104
     14 C         141.4442  142.3754  168.9943 C.ar    1  UNL1        0.0697
     15 C         140.3769  142.6516  167.9771 C.ar    1  UNL1        0.0248
     16 C         141.0868  142.2731  170.4475 C.1     1  UNL1        0.1005
     17 N         140.7294  142.1708  171.9007 N.1     1  UNL1       -0.1908
     18 C         138.7397  137.9735  162.4187 C.3     1  UNL1        0.0294
     19 C         139.9910  137.9880  161.5916 C.3     1  UNL1        0.0666
     20 S         140.0824  138.8747  160.3852 S.3     1  UNL1       -0.0756
     21 C         141.3663  142.4229  161.2949 C.ar    1  UNL1        0.2029
     22 N         140.2837  142.7501  160.3095 N.ar    1  UNL1       -0.1250
     23 N         139.6710  141.4608  159.8488 N.ar    1  UNL1       -0.1220
     24 C         140.3749  140.3367  160.5495 C.ar    1  UNL1        0.1933
     25 N         141.4227  140.9312  161.4432 N.ar    1  UNL1       -0.2860
     26 C         142.3618  140.1681  162.3296 C.3     1  UNL1        0.1341
     27 C         144.5830  142.7882  160.8840 C.3     1  UNL1        0.0556
     28 C         143.7178  143.5812  161.8181 C.ar    1  UNL1        0.1001
     29 N         144.1792  144.6814  162.7273 N.ar    1  UNL1       -0.2085
     30 C         142.9858  145.1934  163.4781 C.ar    1  UNL1        0.2849
     31 O         141.7869  144.4097  163.0329 O.2     1  UNL1       -0.4283
     32 C         142.2393  143.4133  162.0070 C.ar    1  UNL1        0.1964
@<TRIPOS>BOND
     1    27    28    1
     2    28    29   ar
     3    29    30   ar
     4    30    31   ar
     5    31    32   ar
     6    32    21    1
     7    21    22   ar
     8    22    23   ar
     9    23    24   ar
    10    24    20    1
    11    20    19    1
    12    19    18    1
    13    18     1    1
    14     1     2    1
    15     2     3    1
    16     3     4    1
    17     4     5    1
    18     5     6    1
    19     6     7    1
    20     7    10    1
    21    10    11   ar
    22    11    12   ar
    23    12    13   ar
    24    13    14   ar
    25    14    16    1
    26    16    17    3
    27    14    15   ar
    28     7     8    1
    29     8     9    1
    30    24    25   ar
    31    25    26    1
    32    32    28   ar
    33    25    21   ar
    34     9     2    1
    35     8     4    1
    36    15    10   ar
@<TRIPOS>MOLECULE
*****
 32 36 0 0 0
SMALL
GASTEIGER

@<TRIPOS>ATOM
      1 C         144.0912  138.7748  161.3316 C.3     1  UNL1        0.0731
      2 N         143.9898  139.7652  162.4536 N.3     1  UNL1       -0.2712
      3 C         144.8245  141.0008  162.6170 C.3     1  UNL1        0.0738
      4 C         144.3865  141.6931  163.8735 C.3     1  UNL1        0.0372
      5 C         144.6317  142.8846  164.7511 C.3     1  UNL1        0.0245
      6 C         143.6779  142.8134  165.9067 C.3     1  UNL1        0.0909
      7 N         142.8432  141.5778  165.7432 N.pl3   1  UNL1       -0.3077
      8 C         143.2812  140.8854  164.4867 C.3     1  UNL1        0.0901
      9 C         143.0360  139.6939  163.6091 C.3     1  UNL1        0.0921
     10 C         141.7607  141.1157  166.6730 C.ar    1  UNL1        0.0485
     11 C         140.7000  140.1760  166.1811 C.ar    1  UNL1        0.0146
     12 C         139.6175  139.7139  167.1109 C.ar    1  UNL1        0.0020
     13 C         139.5956  140.1914  168.5327 C.ar    1  UNL1        0.0104
     14 C         140.6563  141.1311  169.0247 C.ar    1  UNL1        0.0697
     15 C         141.7389  141.5932  168.0949 C.ar    1  UNL1        0.0248
     16 C         140.6345  141.6086  170.4465 C.1     1  UNL1        0.1005
     17 N         140.6126  142.0861  171.8682 N.1     1  UNL1       -0.1908
     18 C         143.3035  138.9847  160.0725 C.3     1  UNL1        0.0294
     19 C         143.7453  140.0133  159.0740 C.3     1  UNL1        0.0666
     20 S         142.8807  141.2066  158.7941 S.3     1  UNL1       -0.0756
     21 C         141.6128  143.3901  161.7421 C.ar    1  UNL1        0.2029
     22 N         142.8397  144.1470  161.3274 N.ar    1  UNL1       -0.1250
     23 N         143.4639  143.4212  160.1726 N.ar    1  UNL1       -0.1220
     24 C         142.6229  142.2157  159.8736 C.ar    1  UNL1        0.1933
     25 N         141.4789  142.1964  160.8435 N.ar    1  UNL1       -0.2860
     26 C         140.3918  141.1646  160.9043 C.3     1  UNL1        0.1341
     27 C         139.8393  146.1228  161.9332 C.3     1  UNL1        0.0556
     28 C         139.8680  145.0176  162.9470 C.ar    1  UNL1        0.1001
     29 N         139.0866  144.9744  164.2266 N.ar    1  UNL1       -0.2085
     30 C         139.4188  143.6917  164.9296 C.ar    1  UNL1        0.2849
     31 O         140.4056  142.9421  164.0845 O.2     1  UNL1       -0.4283
     32 C         140.6832  143.7615  162.8591 C.ar    1  UNL1        0.1964
@<TRIPOS>BOND
     1    27    28    1
     2    28    29   ar
     3    29    30   ar
     4    30    31   ar
     5    31    32   ar
     6    32    21    1
     7    21    22   ar
     8    22    23   ar
     9    23    24   ar
    10    24    20    1
    11    20    19    1
    12    19    18    1
    13    18     1    1
    14     1     2    1
    15     2     3    1
    16     3     4    1
    17     4     5    1
    18     5     6    1
    19     6     7    1
    20     7    10    1
    21    10    11   ar
    22    11    12   ar
    23    12    13   ar
    24    13    14   ar
    25    14    16    1
    26    16    17    3
    27    14    15   ar
    28     7     8    1
    29     8     9    1
    30    24    25   ar
    31    25    26    1
    32    32    28   ar
    33    25    21   ar
    34     9     2    1
    35     8     4    1
    36    15    10   ar
@<TRIPOS>MOLECULE
*****
 32 36 0 0 0
SMALL
GASTEIGER

@<TRIPOS>ATOM
      1 C         141.2203  145.2051  161.7533 C.3     1  UNL1        0.0731
      2 N         142.1824  144.2114  162.3338 N.3     1  UNL1       -0.2712
      3 C         143.4409  143.7188  161.6830 C.3     1  UNL1        0.0738
      4 C         144.0911  142.7388  162.6140 C.3     1  UNL1        0.0372
      5 C         145.2708  141.8287  162.7872 C.3     1  UNL1        0.0245
      6 C         145.1433  141.1530  164.1204 C.3     1  UNL1        0.0909
      7 N         143.8847  141.6456  164.7711 N.pl3   1  UNL1       -0.3077
      8 C         143.2345  142.6257  163.8401 C.3     1  UNL1        0.0901
      9 C         142.0548  143.5358  163.6669 C.3     1  UNL1        0.0921
     10 C         143.3672  141.2310  166.1166 C.ar    1  UNL1        0.0485
     11 C         142.8647  139.8337  166.3289 C.ar    1  UNL1        0.0146
     12 C         142.3472  139.4191  167.6743 C.ar    1  UNL1        0.0020
     13 C         142.3323  140.4017  168.8075 C.ar    1  UNL1        0.0104
     14 C         142.8348  141.7990  168.5953 C.ar    1  UNL1        0.0697
     15 C         143.3523  142.2137  167.2498 C.ar    1  UNL1        0.0248
     16 C         142.8199  142.7816  169.7285 C.1     1  UNL1        0.1005
     17 N         142.8049  143.7642  170.8617 N.1     1  UNL1       -0.1908
     18 C         140.9834  145.2429  160.2726 C.3     1  UNL1        0.0294
     19 C         139.9318  144.3671  159.6586 C.3     1  UNL1        0.0666
     20 S         139.9387  142.8903  159.9210 S.3     1  UNL1       -0.0756
     21 C         138.4755  140.9980  162.9779 C.ar    1  UNL1        0.2029
     22 N         137.3435  141.9224  162.6401 N.ar    1  UNL1       -0.1250
     23 N         137.7538  142.7437  161.4539 N.ar    1  UNL1       -0.1220
     24 C         139.1394  142.3270  161.0586 C.ar    1  UNL1        0.1933
     25 N         139.5855  141.2481  162.0004 N.ar    1  UNL1       -0.2860
     26 C         140.9092  140.5431  161.9701 C.3     1  UNL1        0.1341
     27 C         138.7246  137.7603  162.6544 C.3     1  UNL1        0.0556
     28 C         138.6088  138.5108  163.9480 C.ar    1  UNL1        0.1001
     29 N         138.5871  137.9050  165.3200 N.ar    1  UNL1       -0.2085
     30 C         138.4592  139.0187  166.3166 C.ar    1  UNL1        0.2849
     31 O         138.4018  140.3129  165.5606 O.2     1  UNL1       -0.4283
     32 C         138.4943  139.9990  164.0967 C.ar    1  UNL1        0.1964
@<TRIPOS>BOND
     1    27    28    1
     2    28    29   ar
     3    29    30   ar
     4    30    31   ar
     5    31    32   ar
     6    32    21    1
     7    21    22   ar
     8    22    23   ar
     9    23    24   ar
    10    24    20    1
    11    20    19    1
    12    19    18    1
    13    18     1    1
    14     1     2    1
    15     2     3    1
    16     3     4    1
    17     4     5    1
    18     5     6    1
    19     6     7    1
    20     7    10    1
    21    10    11   ar
    22    11    12   ar
    23    12    13   ar
    24    13    14   ar
    25    14    16    1
    26    16    17    3
    27    14    15   ar
    28     7     8    1
    29     8     9    1
    30    24    25   ar
    31    25    26    1
    32    32    28   ar
    33    25    21   ar
    34     9     2    1
    35     8     4    1
    36    15    10   ar
@<TRIPOS>MOLECULE
*****
 32 36 0 0 0
SMALL
GASTEIGER

@<TRIPOS>ATOM
      1 C         141.2896  137.9439  164.9995 C.3     1  UNL1        0.0731
      2 N         142.2775  138.9426  164.4733 N.3     1  UNL1       -0.2712
      3 C         143.6993  139.0985  164.9250 C.3     1  UNL1        0.0738
      4 C         144.3174  140.2129  164.1338 C.3     1  UNL1        0.0372
      5 C         145.5782  140.9981  163.9240 C.3     1  UNL1        0.0245
      6 C         145.3176  142.0161  162.8536 C.3     1  UNL1        0.0909
      7 N         143.8957  141.8601  162.4019 N.pl3   1  UNL1       -0.3077
      8 C         143.2776  140.7457  163.1931 C.3     1  UNL1        0.0901
      9 C         142.0168  139.9606  163.4029 C.3     1  UNL1        0.0921
     10 C         143.2121  142.6754  161.3446 C.ar    1  UNL1        0.0485
     11 C         143.5993  142.5127  159.9046 C.ar    1  UNL1        0.0146
     12 C         142.9157  143.3280  158.8473 C.ar    1  UNL1        0.0020
     13 C         141.8448  144.3061  159.2300 C.ar    1  UNL1        0.0104
     14 C         141.4574  144.4689  160.6700 C.ar    1  UNL1        0.0697
     15 C         142.1411  143.6536  161.7273 C.ar    1  UNL1        0.0248
     16 C         140.3865  145.4469  161.0526 C.1     1  UNL1        0.1005
     17 N         139.3156  146.4250  161.4353 N.1     1  UNL1       -0.1908
     18 C         139.8603  137.9930  164.5472 C.3     1  UNL1        0.0294
     19 C         138.8051  138.5524  165.4549 C.3     1  UNL1        0.0666
     20 S         138.5071  140.0224  165.4419 S.3     1  UNL1       -0.0756
     21 C         141.1428  142.1255  167.3643 C.ar    1  UNL1        0.2029
     22 N         141.0589  142.8788  166.0699 N.ar    1  UNL1       -0.1250
     23 N         140.0614  142.1827  165.1922 N.ar    1  UNL1       -0.1220
     24 C         139.5288  140.9991  165.9442 C.ar    1  UNL1        0.1933
     25 N         140.1971  140.9638  167.2866 N.ar    1  UNL1       -0.2860
     26 C         139.9611  139.9455  168.3625 C.3     1  UNL1        0.1341
     27 C         140.2434  143.8324  169.9963 C.3     1  UNL1        0.0556
     28 C         141.6052  143.2575  169.7413 C.ar    1  UNL1        0.1001
     29 N         142.7927  143.3663  170.6512 N.ar    1  UNL1       -0.2085
     30 C         143.9400  142.6489  170.0038 C.ar    1  UNL1        0.2849
     31 O         143.4616  142.0968  168.6937 O.2     1  UNL1       -0.4283
     32 C         142.0186  142.4730  168.5315 C.ar    1  UNL1        0.1964
@<TRIPOS>BOND
     1    27    28    1
     2    28    29   ar
     3    29    30   ar
     4    30    31   ar
     5    31    32   ar
     6    32    21    1
     7    21    22   ar
     8    22    23   ar
     9    23    24   ar
    10    24    20    1
    11    20    19    1
    12    19    18    1
    13    18     1    1
    14     1     2    1
    15     2     3    1
    16     3     4    1
    17     4     5    1
    18     5     6    1
    19     6     7    1
    20     7    10    1
    21    10    11   ar
    22    11    12   ar
    23    12    13   ar
    24    13    14   ar
    25    14    16    1
    26    16    17    3
    27    14    15   ar
    28     7     8    1
    29     8     9    1
    30    24    25   ar
    31    25    26    1
    32    32    28   ar
    33    25    21   ar
    34     9     2    1
    35     8     4    1
    36    15    10   ar
@<TRIPOS>MOLECULE
*****
 32 36 0 0 0
SMALL
GASTEIGER

@<TRIPOS>ATOM
      1 C         138.7565  144.3575  163.1490 C.3     1  UNL1        0.0731
      2 N         139.9515  143.9207  163.9435 N.3     1  UNL1       -0.2712
      3 C         141.3841  144.2279  163.6222 C.3     1  UNL1        0.0738
      4 C         142.2416  143.5971  164.6789 C.3     1  UNL1        0.0372
      5 C         143.6570  143.3971  165.1335 C.3     1  UNL1        0.0245
      6 C         143.6292  142.5765  166.3888 C.3     1  UNL1        0.0909
      7 N         142.1965  142.2693  166.7101 N.pl3   1  UNL1       -0.3077
      8 C         141.3390  142.9001  165.6534 C.3     1  UNL1        0.0901
      9 C         139.9236  143.1001  165.1988 C.3     1  UNL1        0.0921
     10 C         141.7073  141.4715  167.8824 C.ar    1  UNL1        0.0485
     11 C         140.4028  141.8205  168.5352 C.ar    1  UNL1        0.0146
     12 C         139.9136  141.0227  169.7075 C.ar    1  UNL1        0.0020
     13 C         140.7289  139.8758  170.2268 C.ar    1  UNL1        0.0104
     14 C         142.0336  139.5267  169.5740 C.ar    1  UNL1        0.0697
     15 C         142.5228  140.3245  168.4017 C.ar    1  UNL1        0.0248
     16 C         142.8489  138.3798  170.0934 C.1     1  UNL1        0.1005
     17 N         143.6643  137.2330  170.6127 N.1     1  UNL1       -0.1908
     18 C         137.7758  143.3390  162.6481 C.3     1  UNL1        0.0294
     19 C         137.9229  142.7716  161.2674 C.3     1  UNL1        0.0666
     20 S         138.4762  141.3902  161.0792 S.3     1  UNL1       -0.0756
     21 C         141.4327  140.1898  163.2891 C.ar    1  UNL1        0.2029
     22 N         140.2610  139.6487  164.0536 N.ar    1  UNL1       -0.1250
     23 N         139.0109  140.0326  163.3188 N.ar    1  UNL1       -0.1220
     24 C         139.4099  140.8108  162.1001 C.ar    1  UNL1        0.1933
     25 N         140.9067  140.9081  162.0818 N.ar    1  UNL1       -0.2860
     26 C         141.7324  141.6017  161.0392 C.3     1  UNL1        0.1341
     27 C         142.6216  138.1732  165.5627 C.3     1  UNL1        0.0556
     28 C         143.4233  139.1122  164.7108 C.ar    1  UNL1        0.1001
     29 N         144.9122  139.2891  164.7544 N.ar    1  UNL1       -0.2085
     30 C         145.2859  140.3254  163.7363 C.ar    1  UNL1        0.2849
     31 O         144.0279  140.7889  163.0635 O.2     1  UNL1       -0.4283
     32 C         142.8768  140.0391  163.6658 C.ar    1  UNL1        0.1964
@<TRIPOS>BOND
     1    27    28    1
     2    28    29   ar
     3    29    30   ar
     4    30    31   ar
     5    31    32   ar
     6    32    21    1
     7    21    22   ar
     8    22    23   ar
     9    23    24   ar
    10    24    20    1
    11    20    19    1
    12    19    18    1
    13    18     1    1
    14     1     2    1
    15     2     3    1
    16     3     4    1
    17     4     5    1
    18     5     6    1
    19     6     7    1
    20     7    10    1
    21    10    11   ar
    22    11    12   ar
    23    12    13   ar
    24    13    14   ar
    25    14    16    1
    26    16    17    3
    27    14    15   ar
    28     7     8    1
    29     8     9    1
    30    24    25   ar
    31    25    26    1
    32    32    28   ar
    33    25    21   ar
    34     9     2    1
    35     8     4    1
    36    15    10   ar
@<TRIPOS>MOLECULE
*****
 32 36 0 0 0
SMALL
GASTEIGER

@<TRIPOS>ATOM
      1 C         138.0697  138.4914  162.5380 C.3     1  UNL1        0.0731
      2 N         139.2597  138.6392  163.4392 N.3     1  UNL1       -0.2712
      3 C         140.6543  138.1737  163.1416 C.3     1  UNL1        0.0738
      4 C         141.5204  138.5252  164.3147 C.3     1  UNL1        0.0372
      5 C         142.9176  138.4548  164.8558 C.3     1  UNL1        0.0245
      6 C         142.9220  139.0939  166.2129 C.3     1  UNL1        0.0909
      7 N         141.5273  139.5593  166.5105 N.pl3   1  UNL1       -0.3077
      8 C         140.6612  139.2078  165.3374 C.3     1  UNL1        0.0901
      9 C         139.2640  139.2782  164.7962 C.3     1  UNL1        0.0921
     10 C         141.0778  140.2541  167.7616 C.ar    1  UNL1        0.0485
     11 C         139.7288  139.9523  168.3438 C.ar    1  UNL1        0.0146
     12 C         139.2793  140.6471  169.5948 C.ar    1  UNL1        0.0020
     13 C         140.1788  141.6438  170.2637 C.ar    1  UNL1        0.0104
     14 C         141.5279  141.9457  169.6815 C.ar    1  UNL1        0.0697
     15 C         141.9774  141.2509  168.4304 C.ar    1  UNL1        0.0248
     16 C         142.4274  142.9424  170.3503 C.1     1  UNL1        0.1005
     17 N         143.3270  143.9391  171.0192 N.1     1  UNL1       -0.1908
     18 C         137.7451  139.5653  161.5423 C.3     1  UNL1        0.0294
     19 C         138.2646  139.4683  160.1384 C.3     1  UNL1        0.0666
     20 S         138.8000  140.6892  159.4508 S.3     1  UNL1       -0.0756
     21 C         140.6233  143.3111  161.6570 C.ar    1  UNL1        0.2029
     22 N         139.3390  144.0263  161.3583 N.ar    1  UNL1       -0.1250
     23 N         138.4998  143.1312  160.4955 N.ar    1  UNL1       -0.1220
     24 C         139.2653  141.8627  160.2610 C.ar    1  UNL1        0.1933
     25 N         140.5777  141.9738  160.9788 N.ar    1  UNL1       -0.2860
     26 C         141.6553  140.9309  161.0125 C.3     1  UNL1        0.1341
     27 C         140.9545  142.9703  164.8856 C.3     1  UNL1        0.0556
     28 C         141.9067  143.6835  163.9720 C.ar    1  UNL1        0.1001
     29 N         143.1783  144.3652  164.3820 N.ar    1  UNL1       -0.2085
     30 C         143.8121  144.9432  163.1514 C.ar    1  UNL1        0.2849
     31 O         142.9320  144.6186  161.9808 O.2     1  UNL1       -0.4283
     32 C         141.7545  143.8401  162.4880 C.ar    1  UNL1        0.1964
@<TRIPOS>BOND
     1    27    28    1
     2    28    29   ar
     3    29    30   ar
     4    30    31   ar
     5    31    32   ar
     6    32    21    1
     7    21    22   ar
     8    22    23   ar
     9    23    24   ar
    10    24    20    1
    11    20    19    1
    12    19    18    1
    13    18     1    1
    14     1     2    1
    15     2     3    1
    16     3     4    1
    17     4     5    1
    18     5     6    1
    19     6     7    1
    20     7    10    1
    21    10    11   ar
    22    11    12   ar
    23    12    13   ar
    24    13    14   ar
    25    14    16    1
    26    16    17    3
    27    14    15   ar
    28     7     8    1
    29     8     9    1
    30    24    25   ar
    31    25    26    1
    32    32    28   ar
    33    25    21   ar
    34     9     2    1
    35     8     4    1
    36    15    10   ar
@<TRIPOS>MOLECULE
*****
 32 36 0 0 0
SMALL
GASTEIGER

@<TRIPOS>ATOM
      1 C         142.7627  144.0216  161.0615 C.3     1  UNL1        0.0731
      2 N         141.5633  143.7527  161.9213 N.3     1  UNL1       -0.2712
      3 C         140.5400  144.7630  162.3481 C.3     1  UNL1        0.0738
      4 C         139.5210  144.0609  163.1958 C.3     1  UNL1        0.0372
      5 C         138.2588  144.2514  163.9835 C.3     1  UNL1        0.0245
      6 C         137.8721  142.9250  164.5675 C.3     1  UNL1        0.0909
      7 N         138.8954  141.9146  164.1407 N.pl3   1  UNL1       -0.3077
      8 C         139.9145  142.6167  163.2930 C.3     1  UNL1        0.0901
      9 C         141.1767  142.4262  162.5052 C.3     1  UNL1        0.0921
     10 C         138.8991  140.4580  164.4987 C.ar    1  UNL1        0.0485
     11 C         139.6812  139.4836  163.6688 C.ar    1  UNL1        0.0146
     12 C         139.6848  138.0270  164.0269 C.ar    1  UNL1        0.0020
     13 C         138.9063  137.5447  165.2149 C.ar    1  UNL1        0.0104
     14 C         138.1241  138.5191  166.0449 C.ar    1  UNL1        0.0697
     15 C         138.1205  139.9758  165.6868 C.ar    1  UNL1        0.0248
     16 C         137.3456  138.0369  167.2328 C.1     1  UNL1        0.1005
     17 N         136.5671  137.5547  168.4208 N.1     1  UNL1       -0.1908
     18 C         143.7252  142.9143  160.7494 C.3     1  UNL1        0.0294
     19 C         144.9144  142.6826  161.6339 C.3     1  UNL1        0.0666
     20 S         144.8941  141.5722  162.6421 S.3     1  UNL1       -0.0756
     21 C         143.3057  141.5084  166.1831 C.ar    1  UNL1        0.2029
     22 N         143.8216  142.9156  166.1221 N.ar    1  UNL1       -0.1250
     23 N         144.4794  143.1108  164.7882 N.ar    1  UNL1       -0.1220
     24 C         144.3701  141.8242  164.0248 C.ar    1  UNL1        0.1933
     25 N         143.6447  140.8339  164.8869 N.ar    1  UNL1       -0.2860
     26 C         143.3160  139.4177  164.5176 C.3     1  UNL1        0.1341
     27 C         140.4273  142.4712  167.3821 C.3     1  UNL1        0.0556
     28 C         141.2555  141.3278  167.8887 C.ar    1  UNL1        0.1001
     29 N         140.9060  140.4261  169.0354 N.ar    1  UNL1       -0.2085
     30 C         142.0131  139.4262  169.1929 C.ar    1  UNL1        0.2849
     31 O         143.0467  139.7100  168.1436 O.2     1  UNL1       -0.4283
     32 C         142.5785  140.8852  167.3376 C.ar    1  UNL1        0.1964
@<TRIPOS>BOND
     1    27    28    1
     2    28    29   ar
     3    29    30   ar
     4    30    31   ar
     5    31    32   ar
     6    32    21    1
     7    21    22   ar
     8    22    23   ar
     9    23    24   ar
    10    24    20    1
    11    20    19    1
    12    19    18    1
    13    18     1    1
    14     1     2    1
    15     2     3    1
    16     3     4    1
    17     4     5    1
    18     5     6    1
    19     6     7    1
    20     7    10    1
    21    10    11   ar
    22    11    12   ar
    23    12    13   ar
    24    13    14   ar
    25    14    16    1
    26    16    17    3
    27    14    15   ar
    28     7     8    1
    29     8     9    1
    30    24    25   ar
    31    25    26    1
    32    32    28   ar
    33    25    21   ar
    34     9     2    1
    35     8     4    1
    36    15    10   ar
@<TRIPOS>MOLECULE
*****
 32 36 0 0 0
SMALL
GASTEIGER

@<TRIPOS>ATOM
      1 C         143.5137  139.2706  160.3167 C.3     1  UNL1        0.0731
      2 N         142.3645  139.0613  161.2578 N.3     1  UNL1       -0.2712
      3 C         141.2362  138.0910  161.0696 C.3     1  UNL1        0.0738
      4 C         140.3163  138.2157  162.2478 C.3     1  UNL1        0.0372
      5 C         139.0505  137.6930  162.8597 C.3     1  UNL1        0.0245
      6 C         138.8278  138.4173  164.1542 C.3     1  UNL1        0.0909
      7 N         139.9562  139.3877  164.3424 N.pl3   1  UNL1       -0.3077
      8 C         140.8761  139.2630  163.1642 C.3     1  UNL1        0.0901
      9 C         142.1419  139.7857  162.5523 C.3     1  UNL1        0.0921
     10 C         140.1334  140.3191  165.5047 C.ar    1  UNL1        0.0485
     11 C         140.6070  141.7237  165.2749 C.ar    1  UNL1        0.0146
     12 C         140.7842  142.6551  166.4372 C.ar    1  UNL1        0.0020
     13 C         140.4879  142.1820  167.8294 C.ar    1  UNL1        0.0104
     14 C         140.0143  140.7774  168.0593 C.ar    1  UNL1        0.0697
     15 C         139.8371  139.8460  166.8970 C.ar    1  UNL1        0.0248
     16 C         139.7180  140.3043  169.4516 C.1     1  UNL1        0.1005
     17 N         139.4217  139.8312  170.8438 N.1     1  UNL1       -0.1908
     18 C         143.7339  140.6151  159.6892 C.3     1  UNL1        0.0294
     19 C         143.3649  140.8421  158.2530 C.3     1  UNL1        0.0666
     20 S         142.3567  141.8933  157.8949 S.3     1  UNL1       -0.0756
     21 C         140.7477  143.9718  160.7509 C.ar    1  UNL1        0.2029
     22 N         141.7847  144.9298  160.2438 N.ar    1  UNL1       -0.1250
     23 N         142.5136  144.2678  159.1123 N.ar    1  UNL1       -0.1220
     24 C         141.9272  142.9006  158.9199 C.ar    1  UNL1        0.1933
     25 N         140.8358  142.7177  159.9326 N.ar    1  UNL1       -0.2860
     26 C         139.9824  141.4953  160.0980 C.3     1  UNL1        0.1341
     27 C         141.5175  145.1594  163.6914 C.3     1  UNL1        0.0556
     28 C         140.1446  144.7696  163.2297 C.ar    1  UNL1        0.1001
     29 N         138.8845  144.8572  164.0386 N.ar    1  UNL1       -0.2085
     30 C         137.7518  144.3655  163.1870 C.ar    1  UNL1        0.2849
     31 O         138.3119  143.9740  161.8517 O.2     1  UNL1       -0.4283
     32 C         139.7908  144.2237  161.8781 C.ar    1  UNL1        0.1964
@<TRIPOS>BOND
     1    27    28    1
     2    28    29   ar
     3    29    30   ar
     4    30    31   ar
     5    31    32   ar
     6    32    21    1
     7    21    22   ar
     8    22    23   ar
     9    23    24   ar
    10    24    20    1
    11    20    19    1
    12    19    18    1
    13    18     1    1
    14     1     2    1
    15     2     3    1
    16     3     4    1
    17     4     5    1
    18     5     6    1
    19     6     7    1
    20     7    10    1
    21    10    11   ar
    22    11    12   ar
    23    12    13   ar
    24    13    14   ar
    25    14    16    1
    26    16    17    3
    27    14    15   ar
    28     7     8    1
    29     8     9    1
    30    24    25   ar
    31    25    26    1
    32    32    28   ar
    33    25    21   ar
    34     9     2    1
    35     8     4    1
    36    15    10   ar
