@<TRIPOS>MOLECULE
*****
 29 32 0 0 0
SMALL
GASTEIGER

@<TRIPOS>ATOM
      1 C         140.9809  143.0720  163.1907 C.3     1  UNL1        0.1747
      2 C         142.2090  142.2471  162.9434 C.3     1  UNL1        0.0407
      3 C         142.6239  141.2031  163.9373 C.3     1  UNL1        0.0431
      4 C         143.8520  140.3781  163.6900 C.3     1  UNL1        0.0921
      5 S         144.2669  139.3341  164.6839 S.3     1  UNL1       -0.0787
      6 C         143.4537  139.1151  165.9252 C.2     1  UNL1        0.1483
      7 N         143.8687  138.0711  166.9192 N.pl3   1  UNL1       -0.3380
      8 N         142.2257  139.9401  166.1726 N.2     1  UNL1       -0.2484
      9 C         141.8107  140.9841  165.1786 C.3     1  UNL1        0.1352
     10 C         140.5826  141.8091  165.4260 C.3     1  UNL1        0.1691
     11 O         140.1678  142.8531  164.4320 O.3     1  UNL1       -0.3462
     12 H         144.6747  137.5296  166.7569 H       1  UNL1        0.1442
     13 H         143.3350  137.9274  167.7339 H       1  UNL1        0.1442
     14 C         140.9975  140.7652  166.4199 C.ar    1  UNL1        0.0278
     15 C         139.8417  139.8093  166.4004 C.ar    1  UNL1        0.0021
     16 C         139.0285  139.5903  167.6417 C.ar    1  UNL1        0.0295
     17 C         139.3712  140.3272  168.9025 C.ar    1  UNL1        0.1424
     18 F         138.5581  140.1083  170.1438 F       1  UNL1       -0.2041
     19 C         140.5270  141.2831  168.9220 C.ar    1  UNL1        0.0590
     20 C         141.3402  141.5020  167.6807 C.ar    1  UNL1        0.1402
     21 F         142.4960  142.4579  167.7002 F       1  UNL1       -0.2044
     22 C         140.3372  145.7327  158.6754 C.3     1  UNL1        0.0557
     23 C         140.2701  145.3390  160.1213 C.ar    1  UNL1        0.1008
     24 C         140.8764  144.1091  160.7292 C.ar    1  UNL1        0.0561
     25 C         140.5660  144.1161  162.1968 C.ar    1  UNL1        0.1809
     26 O         139.7677  145.3503  162.4958 O.2     1  UNL1       -0.3556
     27 N         139.5848  146.1061  161.2131 N.ar    1  UNL1       -0.0817
     28 C         144.6651  140.5970  162.4487 C.3     1  UNL1        0.2044
     29 F         145.6367  141.7378  162.3801 F       1  UNL1       -0.2334
@<TRIPOS>BOND
     1    22    23    1
     2    23    24   ar
     3    24    25   ar
     4     1    25    1
     5     1     2    1
     6     3     2    1
     7     3     4    1
     8     4    28    1
     9    28    29    1
    10     4     5    1
    11     5     6    1
    12     6     7    1
    13     6     8    2
    14     8     9    1
    15     9    14    1
    16    14    15   ar
    17    15    16   ar
    18    16    17   ar
    19    17    18    1
    20    17    19   ar
    21    19    20   ar
    22    20    21    1
    23     9    10    1
    24    10    11    1
    25    25    26   ar
    26    26    27   ar
    27    27    23   ar
    28    11     1    1
    29     9     3    1
    30    20    14   ar
    31     7    12    1
    32     7    13    1
@<TRIPOS>MOLECULE
*****
 29 32 0 0 0
SMALL
GASTEIGER

@<TRIPOS>ATOM
      1 C         140.8366  142.8348  162.3354 C.3     1  UNL1        0.1747
      2 C         142.2726  142.4581  162.5497 C.3     1  UNL1        0.0407
      3 C         142.6232  141.3423  163.4888 C.3     1  UNL1        0.0431
      4 C         144.0592  140.9656  163.7032 C.3     1  UNL1        0.0921
      5 S         144.4098  139.8498  164.6423 S.3     1  UNL1       -0.0787
      6 C         143.3243  139.1106  165.3671 C.2     1  UNL1        0.1483
      7 N         143.6750  137.9947  166.3063 N.pl3   1  UNL1       -0.3380
      8 N         141.8883  139.4872  165.1528 N.2     1  UNL1       -0.2484
      9 C         141.5377  140.6031  164.2137 C.3     1  UNL1        0.1352
     10 C         140.1017  140.9797  163.9993 C.3     1  UNL1        0.1691
     11 O         139.7511  142.0956  163.0602 O.3     1  UNL1       -0.3462
     12 H         144.6175  137.7476  166.4469 H       1  UNL1        0.1442
     13 H         142.9626  137.5096  166.7820 H       1  UNL1        0.1442
     14 C         140.4522  139.8639  164.9385 C.ar    1  UNL1        0.0278
     15 C         139.9575  140.3666  166.2623 C.ar    1  UNL1        0.0021
     16 C         138.8720  139.6274  166.9872 C.ar    1  UNL1        0.0295
     17 C         138.2813  138.3855  166.3881 C.ar    1  UNL1        0.1424
     18 F         137.1959  137.6463  167.1129 F       1  UNL1       -0.2041
     19 C         138.7761  137.8828  165.0643 C.ar    1  UNL1        0.0590
     20 C         139.8616  138.6220  164.3395 C.ar    1  UNL1        0.1402
     21 F         140.3563  138.1194  163.0157 F       1  UNL1       -0.2044
     22 C         140.4212  145.7870  157.9773 C.3     1  UNL1        0.0557
     23 C         140.2951  145.3076  159.3930 C.ar    1  UNL1        0.1008
     24 C         140.8439  144.0239  159.9414 C.ar    1  UNL1        0.0561
     25 C         140.4860  143.9506  161.3962 C.ar    1  UNL1        0.1809
     26 O         139.7158  145.1891  161.7470 O.2     1  UNL1       -0.3556
     27 N         139.5978  146.0278  160.5090 N.ar    1  UNL1       -0.0817
     28 C         145.1447  141.7048  162.9784 C.3     1  UNL1        0.2044
     29 F         146.5498  141.6777  163.5027 F       1  UNL1       -0.2334
@<TRIPOS>BOND
     1    22    23    1
     2    23    24   ar
     3    24    25   ar
     4     1    25    1
     5     1     2    1
     6     3     2    1
     7     3     4    1
     8     4    28    1
     9    28    29    1
    10     4     5    1
    11     5     6    1
    12     6     7    1
    13     6     8    2
    14     8     9    1
    15     9    14    1
    16    14    15   ar
    17    15    16   ar
    18    16    17   ar
    19    17    18    1
    20    17    19   ar
    21    19    20   ar
    22    20    21    1
    23     9    10    1
    24    10    11    1
    25    25    26   ar
    26    26    27   ar
    27    27    23   ar
    28    11     1    1
    29     9     3    1
    30    20    14   ar
    31     7    12    1
    32     7    13    1
@<TRIPOS>MOLECULE
*****
 29 32 0 0 0
SMALL
GASTEIGER

@<TRIPOS>ATOM
      1 C         140.0331  140.1997  166.5778 C.3     1  UNL1        0.1747
      2 C         141.4024  139.7179  166.1998 C.3     1  UNL1        0.0407
      3 C         141.6970  139.3343  164.7799 C.3     1  UNL1        0.0431
      4 C         143.0664  138.8525  164.4019 C.3     1  UNL1        0.0921
      5 S         143.3610  138.4690  162.9820 S.3     1  UNL1       -0.0787
      6 C         142.2863  138.5672  161.9402 C.2     1  UNL1        0.1483
      7 N         142.5810  138.1836  160.5202 N.pl3   1  UNL1       -0.3380
      8 N         140.9171  139.0489  162.3181 N.2     1  UNL1       -0.2484
      9 C         140.6224  139.4325  163.7381 C.3     1  UNL1        0.1352
     10 C         139.2531  139.9143  164.1161 C.3     1  UNL1        0.1691
     11 O         138.9585  140.2979  165.5359 O.3     1  UNL1       -0.3462
     12 H         143.4797  137.8674  160.2721 H       1  UNL1        0.1442
     13 H         141.8757  138.2480  159.8364 H       1  UNL1        0.1442
     14 C         139.5477  139.5307  162.6962 C.ar    1  UNL1        0.0278
     15 C         139.3925  140.7895  161.8952 C.ar    1  UNL1        0.0021
     16 C         138.3178  140.8877  160.8533 C.ar    1  UNL1        0.0295
     17 C         137.3984  139.7272  160.6125 C.ar    1  UNL1        0.1424
     18 F         136.3237  139.8254  159.5706 F       1  UNL1       -0.2041
     19 C         137.5536  138.4685  161.4135 C.ar    1  UNL1        0.0590
     20 C         138.6283  138.3703  162.4554 C.ar    1  UNL1        0.1402
     21 F         138.7836  137.1117  163.2564 F       1  UNL1       -0.2044
     22 C         139.8077  142.9093  171.1042 C.3     1  UNL1        0.0557
     23 C         139.6348  141.8288  170.0782 C.ar    1  UNL1        0.1008
     24 C         140.1313  141.8688  168.6634 C.ar    1  UNL1        0.0561
     25 C         139.7384  140.5833  167.9977 C.ar    1  UNL1        0.1809
     26 O         138.9992  139.7487  169.0012 O.2     1  UNL1       -0.3556
     27 N         138.9352  140.5184  170.2870 N.ar    1  UNL1       -0.0817
     28 C         144.1410  138.7543  165.4437 C.3     1  UNL1        0.2044
     29 F         144.0859  137.6695  166.4781 F       1  UNL1       -0.2334
@<TRIPOS>BOND
     1    22    23    1
     2    23    24   ar
     3    24    25   ar
     4     1    25    1
     5     1     2    1
     6     3     2    1
     7     3     4    1
     8     4    28    1
     9    28    29    1
    10     4     5    1
    11     5     6    1
    12     6     7    1
    13     6     8    2
    14     8     9    1
    15     9    14    1
    16    14    15   ar
    17    15    16   ar
    18    16    17   ar
    19    17    18    1
    20    17    19   ar
    21    19    20   ar
    22    20    21    1
    23     9    10    1
    24    10    11    1
    25    25    26   ar
    26    26    27   ar
    27    27    23   ar
    28    11     1    1
    29     9     3    1
    30    20    14   ar
    31     7    12    1
    32     7    13    1
@<TRIPOS>MOLECULE
*****
 29 32 0 0 0
SMALL
GASTEIGER

@<TRIPOS>ATOM
      1 C         142.0988  140.2896  166.3729 C.3     1  UNL1        0.1747
      2 C         140.8685  139.4532  166.1817 C.3     1  UNL1        0.0407
      3 C         140.4379  139.0574  164.8005 C.3     1  UNL1        0.0431
      4 C         139.2075  138.2209  164.6092 C.3     1  UNL1        0.0921
      5 S         138.7769  137.8250  163.2280 S.3     1  UNL1       -0.0787
      6 C         139.5767  138.2656  162.0379 C.2     1  UNL1        0.1483
      7 N         139.1461  137.8697  160.6567 N.pl3   1  UNL1       -0.3380
      8 N         140.8071  139.1020  162.2291 N.2     1  UNL1       -0.2484
      9 C         141.2377  139.4979  163.6104 C.3     1  UNL1        0.1352
     10 C         142.4681  140.3343  163.8016 C.3     1  UNL1        0.1691
     11 O         142.8986  140.7302  165.1828 O.3     1  UNL1       -0.3462
     12 H         138.3385  137.3207  160.5312 H       1  UNL1        0.1442
     13 H         139.6710  138.1588  159.8756 H       1  UNL1        0.1442
     14 C         142.0375  139.9384  162.4203 C.ar    1  UNL1        0.0278
     15 C         141.7508  141.2602  161.7716 C.ar    1  UNL1        0.0021
     16 C         142.5506  141.7008  160.5816 C.ar    1  UNL1        0.0295
     17 C         143.6371  140.8195  160.0402 C.ar    1  UNL1        0.1424
     18 F         144.4368  141.2601  158.8501 F       1  UNL1       -0.2041
     19 C         143.9237  139.4978  160.6889 C.ar    1  UNL1        0.0590
     20 C         143.1239  139.0573  161.8789 C.ar    1  UNL1        0.1402
     21 F         143.4106  137.7355  162.5276 F       1  UNL1       -0.2044
     22 C         143.2400  143.1792  170.6424 C.3     1  UNL1        0.0557
     23 C         143.0540  142.0138  169.7166 C.ar    1  UNL1        0.1008
     24 C         142.5591  142.0815  168.3023 C.ar    1  UNL1        0.0561
     25 C         142.5295  140.6855  167.7541 C.ar    1  UNL1        0.1809
     26 O         143.0061  139.7550  168.8298 O.2     1  UNL1       -0.3556
     27 N         143.3302  140.5759  170.0427 N.ar    1  UNL1       -0.0817
     28 C         138.4077  137.7804  165.7993 C.3     1  UNL1        0.2044
     29 F         137.5409  138.7650  166.5266 F       1  UNL1       -0.2334
@<TRIPOS>BOND
     1    22    23    1
     2    23    24   ar
     3    24    25   ar
     4     1    25    1
     5     1     2    1
     6     3     2    1
     7     3     4    1
     8     4    28    1
     9    28    29    1
    10     4     5    1
    11     5     6    1
    12     6     7    1
    13     6     8    2
    14     8     9    1
    15     9    14    1
    16    14    15   ar
    17    15    16   ar
    18    16    17   ar
    19    17    18    1
    20    17    19   ar
    21    19    20   ar
    22    20    21    1
    23     9    10    1
    24    10    11    1
    25    25    26   ar
    26    26    27   ar
    27    27    23   ar
    28    11     1    1
    29     9     3    1
    30    20    14   ar
    31     7    12    1
    32     7    13    1
@<TRIPOS>MOLECULE
*****
 29 32 0 0 0
SMALL
GASTEIGER

@<TRIPOS>ATOM
      1 C         142.1239  141.9308  165.9045 C.3     1  UNL1        0.1747
      2 C         141.0147  142.9234  165.7187 C.3     1  UNL1        0.0407
      3 C         140.6959  143.4440  164.3486 C.3     1  UNL1        0.0431
      4 C         139.5867  144.4366  164.1627 C.3     1  UNL1        0.0921
      5 S         139.2679  144.9572  162.7926 S.3     1  UNL1       -0.0787
      6 C         140.0583  144.4852  161.6082 C.2     1  UNL1        0.1483
      7 N         139.7394  145.0059  160.2381 N.pl3   1  UNL1       -0.3380
      8 N         141.1674  143.4927  161.7941 N.2     1  UNL1       -0.2484
      9 C         141.4863  142.9720  163.1642 C.3     1  UNL1        0.1352
     10 C         142.5954  141.9795  163.3501 C.3     1  UNL1        0.1691
     11 O         142.9142  141.4589  164.7202 O.3     1  UNL1       -0.3462
     12 H         139.0114  145.6574  160.1161 H       1  UNL1        0.1442
     13 H         140.2581  144.6962  159.4607 H       1  UNL1        0.1442
     14 C         142.2766  142.5001  161.9799 C.ar    1  UNL1        0.0278
     15 C         141.8222  141.2984  161.2056 C.ar    1  UNL1        0.0021
     16 C         142.6126  140.8265  160.0213 C.ar    1  UNL1        0.0295
     17 C         143.8574  141.5563  159.6113 C.ar    1  UNL1        0.1424
     18 F         144.6478  141.0843  158.4270 F       1  UNL1       -0.2041
     19 C         144.3118  142.7578  160.3856 C.ar    1  UNL1        0.0590
     20 C         143.5214  143.2298  161.5700 C.ar    1  UNL1        0.1402
     21 F         143.9758  144.4314  162.3443 F       1  UNL1       -0.2044
     22 C         142.5847  138.7302  170.0788 C.3     1  UNL1        0.0557
     23 C         142.6545  139.9390  169.1934 C.ar    1  UNL1        0.1008
     24 C         142.1790  140.0202  167.7731 C.ar    1  UNL1        0.0561
     25 C         142.4427  141.4102  167.2747 C.ar    1  UNL1        0.1809
     26 O         143.0813  142.1880  168.3869 O.2     1  UNL1       -0.3556
     27 N         143.2122  141.2788  169.5728 N.ar    1  UNL1       -0.0817
     28 C         138.7963  144.9085  165.3470 C.3     1  UNL1        0.2044
     29 F         137.3109  144.7042  165.3870 F       1  UNL1       -0.2334
@<TRIPOS>BOND
     1    22    23    1
     2    23    24   ar
     3    24    25   ar
     4     1    25    1
     5     1     2    1
     6     3     2    1
     7     3     4    1
     8     4    28    1
     9    28    29    1
    10     4     5    1
    11     5     6    1
    12     6     7    1
    13     6     8    2
    14     8     9    1
    15     9    14    1
    16    14    15   ar
    17    15    16   ar
    18    16    17   ar
    19    17    18    1
    20    17    19   ar
    21    19    20   ar
    22    20    21    1
    23     9    10    1
    24    10    11    1
    25    25    26   ar
    26    26    27   ar
    27    27    23   ar
    28    11     1    1
    29     9     3    1
    30    20    14   ar
    31     7    12    1
    32     7    13    1
@<TRIPOS>MOLECULE
*****
 29 32 0 0 0
SMALL
GASTEIGER

@<TRIPOS>ATOM
      1 C         140.9035  143.1678  163.9659 C.3     1  UNL1        0.1747
      2 C         141.6985  141.9485  163.6038 C.3     1  UNL1        0.0407
      3 C         142.1558  141.0055  164.6769 C.3     1  UNL1        0.0431
      4 C         142.9509  139.7861  164.3149 C.3     1  UNL1        0.0921
      5 S         143.4082  138.8430  165.3880 S.3     1  UNL1       -0.0787
      6 C         143.0704  139.1193  166.8231 C.2     1  UNL1        0.1483
      7 N         143.5277  138.1762  167.8962 N.pl3   1  UNL1       -0.3380
      8 N         142.2754  140.3387  167.1851 N.2     1  UNL1       -0.2484
      9 C         141.8180  141.2818  166.1120 C.3     1  UNL1        0.1352
     10 C         141.0230  142.5011  166.4741 C.3     1  UNL1        0.1691
     11 O         140.5657  143.4441  165.4010 O.3     1  UNL1       -0.3462
     12 H         144.0496  137.3759  167.6586 H       1  UNL1        0.1442
     13 H         143.3061  138.3576  168.8381 H       1  UNL1        0.1442
     14 C         141.4803  141.5581  167.5472 C.ar    1  UNL1        0.0278
     15 C         142.4104  142.3771  168.3923 C.ar    1  UNL1        0.0021
     16 C         142.0727  142.6534  169.8274 C.ar    1  UNL1        0.0295
     17 C         140.8048  142.1107  170.4174 C.ar    1  UNL1        0.1424
     18 F         140.4671  142.3870  171.8526 F       1  UNL1       -0.2041
     19 C         139.8748  141.2917  169.5723 C.ar    1  UNL1        0.0590
     20 C         140.2125  141.0154  168.1372 C.ar    1  UNL1        0.1402
     21 F         139.2825  140.1964  167.2921 F       1  UNL1       -0.2044
     22 C         140.3316  145.5634  159.2952 C.3     1  UNL1        0.0557
     23 C         140.1833  145.2120  160.7459 C.ar    1  UNL1        0.1008
     24 C         140.8907  144.0988  161.4602 C.ar    1  UNL1        0.0561
     25 C         140.4461  144.1109  162.8928 C.ar    1  UNL1        0.1809
     26 O         139.4641  145.2317  163.0639 O.2     1  UNL1       -0.3556
     27 N         139.3016  145.9123  161.7371 N.ar    1  UNL1       -0.0817
     28 C         143.2886  139.5098  162.8798 C.3     1  UNL1        0.2044
     29 F         143.4973  138.0984  162.4167 F       1  UNL1       -0.2334
@<TRIPOS>BOND
     1    22    23    1
     2    23    24   ar
     3    24    25   ar
     4     1    25    1
     5     1     2    1
     6     3     2    1
     7     3     4    1
     8     4    28    1
     9    28    29    1
    10     4     5    1
    11     5     6    1
    12     6     7    1
    13     6     8    2
    14     8     9    1
    15     9    14    1
    16    14    15   ar
    17    15    16   ar
    18    16    17   ar
    19    17    18    1
    20    17    19   ar
    21    19    20   ar
    22    20    21    1
    23     9    10    1
    24    10    11    1
    25    25    26   ar
    26    26    27   ar
    27    27    23   ar
    28    11     1    1
    29     9     3    1
    30    20    14   ar
    31     7    12    1
    32     7    13    1
@<TRIPOS>MOLECULE
*****
 29 32 0 0 0
SMALL
GASTEIGER

@<TRIPOS>ATOM
      1 C         141.4520  141.3695  166.6089 C.3     1  UNL1        0.1747
      2 C         140.7565  140.1267  166.1383 C.3     1  UNL1        0.0407
      3 C         139.9306  140.1578  164.8865 C.3     1  UNL1        0.0431
      4 C         139.2350  138.9149  164.4158 C.3     1  UNL1        0.0921
      5 S         138.4091  138.9461  163.1641 S.3     1  UNL1       -0.0787
      6 C         138.2788  140.2200  162.3830 C.2     1  UNL1        0.1483
      7 N         137.4529  140.2511  161.1312 N.pl3   1  UNL1       -0.3380
      8 N         138.9743  141.4628  162.8536 N.2     1  UNL1       -0.2484
      9 C         139.8003  141.4317  164.1054 C.3     1  UNL1        0.1352
     10 C         140.4958  142.6745  164.5761 C.3     1  UNL1        0.1691
     11 O         141.3217  142.6434  165.8278 O.3     1  UNL1       -0.3462
     12 H         136.9963  139.4353  160.8223 H       1  UNL1        0.1442
     13 H         137.3673  141.0872  160.6185 H       1  UNL1        0.1442
     14 C         139.6700  142.7057  163.3244 C.ar    1  UNL1        0.0278
     15 C         140.6758  143.0410  162.2632 C.ar    1  UNL1        0.0021
     16 C         140.5455  144.3150  161.4822 C.ar    1  UNL1        0.0295
     17 C         139.4093  145.2535  161.7622 C.ar    1  UNL1        0.1424
     18 F         139.2790  146.5275  160.9811 F       1  UNL1       -0.2041
     19 C         138.4036  144.9181  162.8232 C.ar    1  UNL1        0.0590
     20 C         138.5339  143.6442  163.6043 C.ar    1  UNL1        0.1402
     21 F         137.5281  143.3088  164.6654 F       1  UNL1       -0.2044
     22 C         144.7922  142.7536  170.4571 C.3     1  UNL1        0.0557
     23 C         143.8133  141.9746  169.6296 C.ar    1  UNL1        0.1008
     24 C         143.1912  142.4269  168.3417 C.ar    1  UNL1        0.0561
     25 C         142.2779  141.3384  167.8608 C.ar    1  UNL1        0.1809
     26 O         142.3356  140.2135  168.8513 O.2     1  UNL1       -0.3556
     27 N         143.2845  140.6067  169.9445 N.ar    1  UNL1       -0.0817
     28 C         139.3653  137.6410  165.1969 C.3     1  UNL1        0.2044
     29 F         138.1558  137.0265  165.8367 F       1  UNL1       -0.2334
@<TRIPOS>BOND
     1    22    23    1
     2    23    24   ar
     3    24    25   ar
     4     1    25    1
     5     1     2    1
     6     3     2    1
     7     3     4    1
     8     4    28    1
     9    28    29    1
    10     4     5    1
    11     5     6    1
    12     6     7    1
    13     6     8    2
    14     8     9    1
    15     9    14    1
    16    14    15   ar
    17    15    16   ar
    18    16    17   ar
    19    17    18    1
    20    17    19   ar
    21    19    20   ar
    22    20    21    1
    23     9    10    1
    24    10    11    1
    25    25    26   ar
    26    26    27   ar
    27    27    23   ar
    28    11     1    1
    29     9     3    1
    30    20    14   ar
    31     7    12    1
    32     7    13    1
@<TRIPOS>MOLECULE
*****
 29 32 0 0 0
SMALL
GASTEIGER

@<TRIPOS>ATOM
      1 C         142.3490  141.5712  163.5319 C.3     1  UNL1        0.1747
      2 C         141.1435  140.6910  163.3837 C.3     1  UNL1        0.0407
      3 C         140.3674  140.2717  164.5969 C.3     1  UNL1        0.0431
      4 C         139.1618  139.3915  164.4487 C.3     1  UNL1        0.0921
      5 S         138.3857  138.9722  165.6619 S.3     1  UNL1       -0.0787
      6 C         138.8150  139.4331  167.0232 C.2     1  UNL1        0.1483
      7 N         138.0388  139.0137  168.2364 N.pl3   1  UNL1       -0.3380
      8 N         140.0205  140.3133  167.1714 N.2     1  UNL1       -0.2484
      9 C         140.7967  140.7326  165.9582 C.3     1  UNL1        0.1352
     10 C         142.0022  141.6128  166.1064 C.3     1  UNL1        0.1691
     11 O         142.7783  142.0321  164.8933 O.3     1  UNL1       -0.3462
     12 H         137.2476  138.4360  168.1391 H       1  UNL1        0.1442
     13 H         138.3206  139.3162  169.1299 H       1  UNL1        0.1442
     14 C         141.2261  141.1935  167.3196 C.ar    1  UNL1        0.0278
     15 C         140.6885  142.4764  167.8811 C.ar    1  UNL1        0.0021
     16 C         141.1178  142.9374  169.2425 C.ar    1  UNL1        0.0295
     17 C         142.0848  142.1154  170.0422 C.ar    1  UNL1        0.1424
     18 F         142.5141  142.5763  171.4035 F       1  UNL1       -0.2041
     19 C         142.6223  140.8326  169.4806 C.ar    1  UNL1        0.0590
     20 C         142.1929  140.3717  168.1193 C.ar    1  UNL1        0.1402
     21 F         142.7304  139.0888  167.5577 F       1  UNL1       -0.2044
     22 C         143.5629  143.0495  158.6103 C.3     1  UNL1        0.0557
     23 C         143.6831  142.6700  160.0565 C.ar    1  UNL1        0.1008
     24 C         142.5517  142.2924  160.9660 C.ar    1  UNL1        0.0561
     25 C         143.1252  141.9906  162.3188 C.ar    1  UNL1        0.1809
     26 O         144.6111  142.1817  162.2454 O.2     1  UNL1       -0.3556
     27 N         144.9560  142.6016  160.8473 N.ar    1  UNL1       -0.0817
     28 C         138.7325  138.9305  163.0874 C.3     1  UNL1        0.2044
     29 F         138.4989  137.4716  162.8286 F       1  UNL1       -0.2334
@<TRIPOS>BOND
     1    22    23    1
     2    23    24   ar
     3    24    25   ar
     4     1    25    1
     5     1     2    1
     6     3     2    1
     7     3     4    1
     8     4    28    1
     9    28    29    1
    10     4     5    1
    11     5     6    1
    12     6     7    1
    13     6     8    2
    14     8     9    1
    15     9    14    1
    16    14    15   ar
    17    15    16   ar
    18    16    17   ar
    19    17    18    1
    20    17    19   ar
    21    19    20   ar
    22    20    21    1
    23     9    10    1
    24    10    11    1
    25    25    26   ar
    26    26    27   ar
    27    27    23   ar
    28    11     1    1
    29     9     3    1
    30    20    14   ar
    31     7    12    1
    32     7    13    1
@<TRIPOS>MOLECULE
*****
 29 32 0 0 0
SMALL
GASTEIGER

@<TRIPOS>ATOM
      1 C         140.2932  140.6178  166.1345 C.3     1  UNL1        0.1747
      2 C         139.4632  141.8176  165.7860 C.3     1  UNL1        0.0407
      3 C         139.1679  142.1337  164.3498 C.3     1  UNL1        0.0431
      4 C         138.3379  143.3336  164.0013 C.3     1  UNL1        0.0921
      5 S         138.0426  143.6497  162.5650 S.3     1  UNL1       -0.0787
      6 C         138.5773  142.7661  161.4773 C.2     1  UNL1        0.1483
      7 N         138.2819  143.0823  160.0410 N.pl3   1  UNL1       -0.3380
      8 N         139.4073  141.5662  161.8258 N.2     1  UNL1       -0.2484
      9 C         139.7026  141.2501  163.2621 C.3     1  UNL1        0.1352
     10 C         140.5326  140.0502  163.6105 C.3     1  UNL1        0.1691
     11 O         140.8279  139.7341  165.0468 O.3     1  UNL1       -0.3462
     12 H         137.7372  143.8697  159.8123 H       1  UNL1        0.1442
     13 H         138.6329  142.5023  159.3270 H       1  UNL1        0.1442
     14 C         140.2373  140.3664  162.1743 C.ar    1  UNL1        0.0278
     15 C         141.5955  140.6291  161.5943 C.ar    1  UNL1        0.0021
     16 C         142.1302  139.7454  160.5065 C.ar    1  UNL1        0.0295
     17 C         141.3068  138.5990  159.9988 C.ar    1  UNL1        0.1424
     18 F         141.8415  137.7154  158.9111 F       1  UNL1       -0.2041
     19 C         139.9487  138.3363  160.5788 C.ar    1  UNL1        0.0590
     20 C         139.4139  139.2200  161.6666 C.ar    1  UNL1        0.1402
     21 F         138.0558  138.9573  162.2466 F       1  UNL1       -0.2044
     22 C         142.8503  139.9415  170.7045 C.3     1  UNL1        0.0557
     23 C         141.7640  139.9907  169.6714 C.ar    1  UNL1        0.1008
     24 C         141.9285  140.4000  168.2378 C.ar    1  UNL1        0.0561
     25 C         140.5886  140.3016  167.5708 C.ar    1  UNL1        0.1809
     26 O         139.5958  139.8315  168.5923 O.2     1  UNL1       -0.3556
     27 N         140.3222  139.6393  169.8905 N.ar    1  UNL1       -0.0817
     28 C         137.8031  144.2173  165.0890 C.3     1  UNL1        0.2044
     29 F         138.7010  145.2214  165.7489 F       1  UNL1       -0.2334
@<TRIPOS>BOND
     1    22    23    1
     2    23    24   ar
     3    24    25   ar
     4     1    25    1
     5     1     2    1
     6     3     2    1
     7     3     4    1
     8     4    28    1
     9    28    29    1
    10     4     5    1
    11     5     6    1
    12     6     7    1
    13     6     8    2
    14     8     9    1
    15     9    14    1
    16    14    15   ar
    17    15    16   ar
    18    16    17   ar
    19    17    18    1
    20    17    19   ar
    21    19    20   ar
    22    20    21    1
    23     9    10    1
    24    10    11    1
    25    25    26   ar
    26    26    27   ar
    27    27    23   ar
    28    11     1    1
    29     9     3    1
    30    20    14   ar
    31     7    12    1
    32     7    13    1
