@<TRIPOS>MOLECULE
*****
 37 41 0 0 0
SMALL
GASTEIGER

@<TRIPOS>ATOM
      1 C         141.5057  142.4674  159.0079 C.3     1  UNL1        0.0294
      2 C         142.7869  142.7064  159.7505 C.3     1  UNL1        0.0666
      3 S         143.6510  141.5466  160.1480 S.3     1  UNL1       -0.0756
      4 C         144.0493  140.8879  163.9524 C.ar    1  UNL1        0.1680
      5 N         145.4206  141.3822  163.5986 N.ar    1  UNL1       -0.1282
      6 N         145.4383  141.6891  162.1305 N.ar    1  UNL1       -0.1221
      7 C         144.0779  141.3845  161.5768 C.ar    1  UNL1        0.1932
      8 N         143.2194  140.8893  162.7027 N.ar    1  UNL1       -0.2884
      9 C         141.7833  140.4692  162.5976 C.3     1  UNL1        0.1340
     10 C         143.1649  142.9520  165.9416 C.3     1  UNL1        0.0522
     11 C         143.1465  141.4982  166.3108 C.ar    1  UNL1        0.0623
     12 N         142.6859  141.0766  167.6747 N.ar    1  UNL1       -0.2484
     13 CA        142.6674  139.6229  168.0438 C.ar    1  UNL1        0.0948
     14 C         143.1096  138.5907  167.0492 C.ar    1  UNL1        0.0204
     15 C         143.5702  139.0124  165.6854 C.ar    1  UNL1        0.0058
     16 C         143.5887  140.4662  165.3162 C.ar    1  UNL1        0.0495
     17 C         142.2068  139.2012  169.4077 C.2     1  UNL1        0.0905
     18 O         140.8099  139.5123  169.8570 O.co2   1  UNL1       -0.5430
     19 OXT       143.1431  138.4684  170.3222 O.co2   1  UNL1       -0.5430
     20 C         140.3008  143.3119  159.2996 C.3     1  UNL1        0.0730
     21 N         140.1814  144.0184  160.6174 N.3     1  UNL1       -0.2726
     22 C         140.3988  145.4834  160.8552 C.3     1  UNL1        0.0721
     23 C         140.1753  145.7543  162.3135 C.3     1  UNL1        0.0190
     24 C         139.8198  144.4568  162.9770 C.3     1  UNL1        0.0201
     25 C         139.6639  145.0238  164.3569 C.3     1  UNL1        0.0061
     26 C         139.4464  143.5589  164.1190 C.3     1  UNL1        0.0237
     27 C         139.8236  143.3840  161.9287 C.3     1  UNL1        0.0724
     28 C         139.1054  142.1946  164.6410 C.ar    1  UNL1       -0.0225
     29 C         138.2637  141.2653  163.8176 C.ar    1  UNL1       -0.0043
     30 C         137.9226  139.9011  164.3396 C.ar    1  UNL1        0.0035
     31 C         138.4232  139.4662  165.6851 C.ar    1  UNL1        0.0714
     32 C         139.2649  140.3955  166.5085 C.ar    1  UNL1        0.0035
     33 C         139.6060  141.7597  165.9865 C.ar    1  UNL1       -0.0043
     34 C         138.0822  138.1020  166.2071 C.3     1  UNL1        0.4186
     35 F         137.7411  136.7377  166.7292 F       1  UNL1       -0.1659
     36 F         138.6764  137.4827  164.9769 F       1  UNL1       -0.1659
     37 F         137.4880  138.7212  167.4373 F       1  UNL1       -0.1659
@<TRIPOS>UNITY_ATOM_ATTR
18 1
charge -1
@<TRIPOS>BOND
     1    10    11    1
     2    11    12   ar
     3    12    13   ar
     4    13    17    1
     5    17    18   ar
     6    17    19   ar
     7    13    14   ar
     8    14    15   ar
     9    15    16   ar
    10    16     4    1
    11     4     5   ar
    12     5     6   ar
    13     6     7   ar
    14     7     3    1
    15     3     2    1
    16     2     1    1
    17     1    20    1
    18    20    21    1
    19    21    22    1
    20    22    23    1
    21    24    23    1
    22    24    25    1
    23    25    26    1
    24    26    28    1
    25    28    29   ar
    26    29    30   ar
    27    30    31   ar
    28    31    34    1
    29    34    35    1
    30    34    36    1
    31    34    37    1
    32    31    32   ar
    33    32    33   ar
    34    24    27    1
    35     7     8   ar
    36     8     9    1
    37    16    11   ar
    38     8     4   ar
    39    27    21    1
    40    26    24    1
    41    33    28   ar
@<TRIPOS>MOLECULE
*****
 37 41 0 0 0
SMALL
GASTEIGER

@<TRIPOS>ATOM
      1 C         141.8994  142.1558  159.3617 C.3     1  UNL1        0.0294
      2 C         143.2274  142.3922  160.0179 C.3     1  UNL1        0.0666
      3 S         143.9566  141.2533  160.6668 S.3     1  UNL1       -0.0756
      4 C         144.0013  141.1882  164.5475 C.ar    1  UNL1        0.1680
      5 N         145.4313  141.5269  164.2467 N.ar    1  UNL1       -0.1282
      6 N         145.5886  141.5924  162.7564 N.ar    1  UNL1       -0.1221
      7 C         144.2558  141.2943  162.1361 C.ar    1  UNL1        0.1932
      8 N         143.2748  141.0445  163.2430 N.ar    1  UNL1       -0.2884
      9 C         141.8223  140.7098  163.0749 C.3     1  UNL1        0.1340
     10 C         143.3267  138.4486  165.5669 C.3     1  UNL1        0.0522
     11 C         143.0656  139.6526  166.4226 C.ar    1  UNL1        0.0623
     12 N         142.4671  139.4867  167.7880 N.ar    1  UNL1       -0.2484
     13 CA        142.2061  140.6907  168.6437 C.ar    1  UNL1        0.0948
     14 C         142.5434  142.0606  168.1341 C.ar    1  UNL1        0.0204
     15 C         143.1418  142.2264  166.7686 C.ar    1  UNL1        0.0058
     16 C         143.4029  141.0224  165.9129 C.ar    1  UNL1        0.0495
     17 C         141.6076  140.5249  170.0092 C.2     1  UNL1        0.0905
     18 O         140.5667  139.4718  170.2490 O.co2   1  UNL1       -0.5430
     19 OXT       142.0501  141.4121  171.1348 O.co2   1  UNL1       -0.5430
     20 C         140.8811  143.2560  159.3118 C.3     1  UNL1        0.0730
     21 N         140.5182  143.9996  160.5630 N.3     1  UNL1       -0.2726
     22 C         140.5811  145.4859  160.7549 C.3     1  UNL1        0.0721
     23 C         140.1306  145.7922  162.1525 C.3     1  UNL1        0.0190
     24 C         139.7893  144.4952  162.8243 C.3     1  UNL1        0.0201
     25 C         139.3928  145.0991  164.1388 C.3     1  UNL1        0.0061
     26 C         139.3299  143.6128  163.9469 C.3     1  UNL1        0.0237
     27 C         140.0289  143.3873  161.8419 C.3     1  UNL1        0.0724
     28 C         139.0284  142.2451  164.4842 C.ar    1  UNL1       -0.0225
     29 C         139.6255  141.8028  165.7872 C.ar    1  UNL1       -0.0043
     30 C         139.3240  140.4352  166.3245 C.ar    1  UNL1        0.0035
     31 C         138.4254  139.5099  165.5588 C.ar    1  UNL1        0.0714
     32 C         137.8283  139.9522  164.2557 C.ar    1  UNL1        0.0035
     33 C         138.1298  141.3199  163.7184 C.ar    1  UNL1       -0.0043
     34 C         138.1239  138.1423  166.0961 C.3     1  UNL1        0.4186
     35 F         137.8224  136.7746  166.6334 F       1  UNL1       -0.1659
     36 F         138.6646  137.5290  164.8385 F       1  UNL1       -0.1659
     37 F         137.5833  138.7556  167.3537 F       1  UNL1       -0.1659
@<TRIPOS>UNITY_ATOM_ATTR
18 1
charge -1
@<TRIPOS>BOND
     1    10    11    1
     2    11    12   ar
     3    12    13   ar
     4    13    17    1
     5    17    18   ar
     6    17    19   ar
     7    13    14   ar
     8    14    15   ar
     9    15    16   ar
    10    16     4    1
    11     4     5   ar
    12     5     6   ar
    13     6     7   ar
    14     7     3    1
    15     3     2    1
    16     2     1    1
    17     1    20    1
    18    20    21    1
    19    21    22    1
    20    22    23    1
    21    24    23    1
    22    24    25    1
    23    25    26    1
    24    26    28    1
    25    28    29   ar
    26    29    30   ar
    27    30    31   ar
    28    31    34    1
    29    34    35    1
    30    34    36    1
    31    34    37    1
    32    31    32   ar
    33    32    33   ar
    34    24    27    1
    35     7     8   ar
    36     8     9    1
    37    16    11   ar
    38     8     4   ar
    39    27    21    1
    40    26    24    1
    41    33    28   ar
@<TRIPOS>MOLECULE
*****
 37 41 0 0 0
SMALL
GASTEIGER

@<TRIPOS>ATOM
      1 C         141.8832  143.7445  159.5979 C.3     1  UNL1        0.0294
      2 C         140.8178  144.7998  159.6361 C.3     1  UNL1        0.0666
      3 S         139.9999  144.9952  160.8782 S.3     1  UNL1       -0.0756
      4 C         140.7168  142.9481  164.0970 C.ar    1  UNL1        0.1680
      5 N         139.7781  142.0296  163.3724 N.ar    1  UNL1       -0.1282
      6 N         139.3952  142.6846  162.0784 N.ar    1  UNL1       -0.1221
      7 C         140.0974  144.0080  162.0033 C.ar    1  UNL1        0.1932
      8 N         140.9142  144.1709  163.2508 N.ar    1  UNL1       -0.2884
      9 C         141.7769  145.3495  163.5923 C.3     1  UNL1        0.1340
     10 C         143.6204  142.2135  164.2681 C.3     1  UNL1        0.0522
     11 C         142.7993  142.3220  165.5187 C.ar    1  UNL1        0.0623
     12 N         143.4300  142.0631  166.8548 N.ar    1  UNL1       -0.2484
     13 CA        142.6089  142.1716  168.1054 C.ar    1  UNL1        0.0948
     14 C         141.1570  142.5389  168.0199 C.ar    1  UNL1        0.0204
     15 C         140.5263  142.7977  166.6838 C.ar    1  UNL1        0.0058
     16 C         141.3475  142.6892  165.4332 C.ar    1  UNL1        0.0495
     17 C         143.2395  141.9128  169.4416 C.2     1  UNL1        0.0905
     18 O         143.8334  143.0471  170.2230 O.co2   1  UNL1       -0.5430
     19 OXT       143.2763  140.5197  169.9963 O.co2   1  UNL1       -0.5430
     20 C         141.5353  142.3416  159.1967 C.3     1  UNL1        0.0730
     21 N         142.3358  141.1894  159.7274 N.3     1  UNL1       -0.2726
     22 C         143.6340  140.6864  159.1691 C.3     1  UNL1        0.0721
     23 C         144.0791  139.5241  160.0062 C.3     1  UNL1        0.0190
     24 C         143.0560  139.3087  161.0818 C.3     1  UNL1        0.0201
     25 C         143.7451  138.1403  161.7221 C.3     1  UNL1        0.0061
     26 C         142.4469  138.6433  162.2803 C.3     1  UNL1        0.0237
     27 C         141.9786  140.3380  160.9095 C.3     1  UNL1        0.0724
     28 C         141.3458  138.5496  163.2945 C.ar    1  UNL1       -0.0225
     29 C         140.0522  137.8794  162.9373 C.ar    1  UNL1       -0.0043
     30 C         138.9510  137.7856  163.9515 C.ar    1  UNL1        0.0035
     31 C         139.1435  138.3621  165.3229 C.ar    1  UNL1        0.0714
     32 C         140.4370  139.0323  165.6801 C.ar    1  UNL1        0.0035
     33 C         141.5382  139.1260  164.6659 C.ar    1  UNL1       -0.0043
     34 C         138.0423  138.2684  166.3371 C.3     1  UNL1        0.4186
     35 F         136.9411  138.1746  167.3514 F       1  UNL1       -0.1659
     36 F         138.0346  139.7627  166.4668 F       1  UNL1       -0.1659
     37 F         138.0500  136.7740  166.2074 F       1  UNL1       -0.1659
@<TRIPOS>UNITY_ATOM_ATTR
18 1
charge -1
@<TRIPOS>BOND
     1    10    11    1
     2    11    12   ar
     3    12    13   ar
     4    13    17    1
     5    17    18   ar
     6    17    19   ar
     7    13    14   ar
     8    14    15   ar
     9    15    16   ar
    10    16     4    1
    11     4     5   ar
    12     5     6   ar
    13     6     7   ar
    14     7     3    1
    15     3     2    1
    16     2     1    1
    17     1    20    1
    18    20    21    1
    19    21    22    1
    20    22    23    1
    21    24    23    1
    22    24    25    1
    23    25    26    1
    24    26    28    1
    25    28    29   ar
    26    29    30   ar
    27    30    31   ar
    28    31    34    1
    29    34    35    1
    30    34    36    1
    31    34    37    1
    32    31    32   ar
    33    32    33   ar
    34    24    27    1
    35     7     8   ar
    36     8     9    1
    37    16    11   ar
    38     8     4   ar
    39    27    21    1
    40    26    24    1
    41    33    28   ar
@<TRIPOS>MOLECULE
*****
 37 41 0 0 0
SMALL
GASTEIGER

@<TRIPOS>ATOM
      1 C         143.4296  139.0746  160.3922 C.3     1  UNL1        0.0294
      2 C         143.6198  139.0276  161.8794 C.3     1  UNL1        0.0666
      3 S         142.7299  138.1631  162.7224 S.3     1  UNL1       -0.0756
      4 C         140.7126  139.9397  165.5223 C.ar    1  UNL1        0.1680
      5 N         139.6191  139.5808  164.5603 N.ar    1  UNL1       -0.1282
      6 N         140.2417  138.8716  163.3944 N.ar    1  UNL1       -0.1221
      7 C         141.7200  138.7921  163.6358 C.ar    1  UNL1        0.1932
      8 N         142.0111  139.4522  164.9509 N.ar    1  UNL1       -0.2884
      9 C         143.3632  139.5992  165.5835 C.3     1  UNL1        0.1340
     10 C         141.5526  142.8084  165.7762 C.3     1  UNL1        0.0522
     11 C         140.9583  142.0939  166.9536 C.ar    1  UNL1        0.0623
     12 N         140.7840  142.8139  168.2580 N.ar    1  UNL1       -0.2484
     13 CA        140.1897  142.0994  169.4354 C.ar    1  UNL1        0.0948
     14 C         139.7696  140.6649  169.3085 C.ar    1  UNL1        0.0204
     15 C         139.9439  139.9451  168.0041 C.ar    1  UNL1        0.0058
     16 C         140.5383  140.6595  166.8267 C.ar    1  UNL1        0.0495
     17 C         140.0153  142.8193  170.7397 C.2     1  UNL1        0.0905
     18 O         140.3486  142.1277  172.0284 O.co2   1  UNL1       -0.5430
     19 OXT       139.5078  144.2307  170.7554 O.co2   1  UNL1       -0.5430
     20 C         142.4106  138.1894  159.7380 C.3     1  UNL1        0.0730
     21 N         141.1725  138.7871  159.1382 N.3     1  UNL1       -0.2726
     22 C         140.5537  138.4022  157.8271 C.3     1  UNL1        0.0721
     23 C         139.3345  139.2519  157.6229 C.3     1  UNL1        0.0190
     24 C         139.1999  140.1619  158.8077 C.3     1  UNL1        0.0201
     25 C         137.9544  140.8514  158.3351 C.3     1  UNL1        0.0061
     26 C         138.5733  141.2363  159.6461 C.3     1  UNL1        0.0237
     27 C         140.3358  139.8747  159.7442 C.3     1  UNL1        0.0724
     28 C         138.5688  142.0789  160.8871 C.ar    1  UNL1       -0.0225
     29 C         137.8532  141.6007  162.1157 C.ar    1  UNL1       -0.0043
     30 C         137.8487  142.4433  163.3567 C.ar    1  UNL1        0.0035
     31 C         138.5598  143.7639  163.3691 C.ar    1  UNL1        0.0714
     32 C         139.2754  144.2420  162.1406 C.ar    1  UNL1        0.0035
     33 C         139.2799  143.3995  160.8996 C.ar    1  UNL1       -0.0043
     34 C         138.5554  144.6064  164.6101 C.3     1  UNL1        0.4186
     35 F         138.5509  145.4490  165.8512 F       1  UNL1       -0.1659
     36 F         137.2157  144.0460  164.9858 F       1  UNL1       -0.1659
     37 F         139.8951  145.1669  164.2345 F       1  UNL1       -0.1659
@<TRIPOS>UNITY_ATOM_ATTR
18 1
charge -1
@<TRIPOS>BOND
     1    10    11    1
     2    11    12   ar
     3    12    13   ar
     4    13    17    1
     5    17    18   ar
     6    17    19   ar
     7    13    14   ar
     8    14    15   ar
     9    15    16   ar
    10    16     4    1
    11     4     5   ar
    12     5     6   ar
    13     6     7   ar
    14     7     3    1
    15     3     2    1
    16     2     1    1
    17     1    20    1
    18    20    21    1
    19    21    22    1
    20    22    23    1
    21    24    23    1
    22    24    25    1
    23    25    26    1
    24    26    28    1
    25    28    29   ar
    26    29    30   ar
    27    30    31   ar
    28    31    34    1
    29    34    35    1
    30    34    36    1
    31    34    37    1
    32    31    32   ar
    33    32    33   ar
    34    24    27    1
    35     7     8   ar
    36     8     9    1
    37    16    11   ar
    38     8     4   ar
    39    27    21    1
    40    26    24    1
    41    33    28   ar
@<TRIPOS>MOLECULE
*****
 37 41 0 0 0
SMALL
GASTEIGER

@<TRIPOS>ATOM
      1 C         142.7794  139.6915  159.8646 C.3     1  UNL1        0.0294
      2 C         142.6464  138.5777  160.8605 C.3     1  UNL1        0.0666
      3 S         143.7603  138.2970  161.8250 S.3     1  UNL1       -0.0756
      4 C         143.5536  140.0896  165.2615 C.ar    1  UNL1        0.1680
      5 N         144.7453  140.7670  164.6523 N.ar    1  UNL1       -0.1282
      6 N         144.9678  140.1780  163.2909 N.ar    1  UNL1       -0.1221
      7 C         143.9136  139.1365  163.0586 C.ar    1  UNL1        0.1932
      8 N         143.0396  139.0818  164.2765 N.ar    1  UNL1       -0.2884
      9 C         141.8589  138.1782  164.4746 C.3     1  UNL1        0.1340
     10 C         142.7786  142.8891  166.0111 C.3     1  UNL1        0.0522
     11 C         142.5897  141.7704  166.9923 C.ar    1  UNL1        0.0623
     12 N         142.0133  142.0515  168.3483 N.ar    1  UNL1       -0.2484
     13 CA        141.8244  140.9328  169.3295 C.ar    1  UNL1        0.0948
     14 C         142.2120  139.5330  168.9548 C.ar    1  UNL1        0.0204
     15 C         142.7884  139.2519  167.5987 C.ar    1  UNL1        0.0058
     16 C         142.9772  140.3707  166.6175 C.ar    1  UNL1        0.0495
     17 C         141.2480  141.2138  170.6855 C.2     1  UNL1        0.0905
     18 O         140.0238  140.4801  171.1468 O.co2   1  UNL1       -0.5430
     19 OXT       141.8959  142.2286  171.5802 O.co2   1  UNL1       -0.5430
     20 C         143.3915  140.9973  160.2771 C.3     1  UNL1        0.0730
     21 N         142.5559  142.0308  160.9725 N.3     1  UNL1       -0.2726
     22 C         142.5775  143.5069  160.7066 C.3     1  UNL1        0.0721
     23 C         141.5870  144.1580  161.6258 C.3     1  UNL1        0.0190
     24 C         140.9532  143.0843  162.4598 C.3     1  UNL1        0.0201
     25 C         140.0559  143.9999  163.2387 C.3     1  UNL1        0.0061
     26 C         140.0343  142.5238  163.5046 C.3     1  UNL1        0.0237
     27 C         141.5520  141.7696  162.0561 C.3     1  UNL1        0.0724
     28 C         139.4913  141.3480  164.2613 C.ar    1  UNL1       -0.0225
     29 C         139.5216  141.3424  165.7610 C.ar    1  UNL1       -0.0043
     30 C         138.9786  140.1666  166.5177 C.ar    1  UNL1        0.0035
     31 C         138.4054  138.9964  165.7747 C.ar    1  UNL1        0.0714
     32 C         138.3751  139.0020  164.2750 C.ar    1  UNL1        0.0035
     33 C         138.9181  140.1778  163.5183 C.ar    1  UNL1       -0.0043
     34 C         137.8624  137.8206  166.5314 C.3     1  UNL1        0.4186
     35 F         137.3195  136.6446  167.2881 F       1  UNL1       -0.1659
     36 F         137.3230  138.7456  167.5817 F       1  UNL1       -0.1659
     37 F         138.4019  136.8955  165.4810 F       1  UNL1       -0.1659
@<TRIPOS>UNITY_ATOM_ATTR
18 1
charge -1
@<TRIPOS>BOND
     1    10    11    1
     2    11    12   ar
     3    12    13   ar
     4    13    17    1
     5    17    18   ar
     6    17    19   ar
     7    13    14   ar
     8    14    15   ar
     9    15    16   ar
    10    16     4    1
    11     4     5   ar
    12     5     6   ar
    13     6     7   ar
    14     7     3    1
    15     3     2    1
    16     2     1    1
    17     1    20    1
    18    20    21    1
    19    21    22    1
    20    22    23    1
    21    24    23    1
    22    24    25    1
    23    25    26    1
    24    26    28    1
    25    28    29   ar
    26    29    30   ar
    27    30    31   ar
    28    31    34    1
    29    34    35    1
    30    34    36    1
    31    34    37    1
    32    31    32   ar
    33    32    33   ar
    34    24    27    1
    35     7     8   ar
    36     8     9    1
    37    16    11   ar
    38     8     4   ar
    39    27    21    1
    40    26    24    1
    41    33    28   ar
@<TRIPOS>MOLECULE
*****
 37 41 0 0 0
SMALL
GASTEIGER

@<TRIPOS>ATOM
      1 C         142.7853  143.3708  161.2720 C.3     1  UNL1        0.0294
      2 C         144.1799  142.8215  161.3283 C.3     1  UNL1        0.0666
      3 S         144.4585  141.5586  162.0882 S.3     1  UNL1       -0.0756
      4 C         142.3726  141.1793  165.3396 C.ar    1  UNL1        0.1680
      5 N         142.0330  139.9039  164.6268 N.ar    1  UNL1       -0.1282
      6 N         142.7731  139.8907  163.3221 N.ar    1  UNL1       -0.1221
      7 C         143.5700  141.1581  163.2285 C.ar    1  UNL1        0.1932
      8 N         143.3226  141.9545  164.4753 N.ar    1  UNL1       -0.2884
      9 C         143.9201  143.2913  164.8007 C.3     1  UNL1        0.1340
     10 C         140.2403  143.2814  165.5246 C.3     1  UNL1        0.0522
     11 C         140.7872  142.6560  166.7734 C.ar    1  UNL1        0.0623
     12 N         140.2680  143.0816  168.1148 N.ar    1  UNL1       -0.2484
     13 CA        140.8150  142.4562  169.3636 C.ar    1  UNL1        0.0948
     14 C         141.8812  141.4051  169.2712 C.ar    1  UNL1        0.0204
     15 C         142.4004  140.9795  167.9298 C.ar    1  UNL1        0.0058
     16 C         141.8534  141.6049  166.6809 C.ar    1  UNL1        0.0495
     17 C         140.2958  142.8818  170.7050 C.2     1  UNL1        0.0905
     18 O         140.5719  142.0422  171.9169 O.co2   1  UNL1       -0.5430
     19 OXT       139.5005  144.1470  170.8345 O.co2   1  UNL1       -0.5430
     20 C         141.9646  143.2080  160.0270 C.3     1  UNL1        0.0730
     21 N         141.3763  141.8710  159.6861 N.3     1  UNL1       -0.2726
     22 C         141.3873  141.2217  158.3340 C.3     1  UNL1        0.0721
     23 C         140.6914  139.8980  158.4498 C.3     1  UNL1        0.0190
     24 C         140.2503  139.7291  159.8734 C.3     1  UNL1        0.0201
     25 C         139.6190  138.3818  159.6833 C.3     1  UNL1        0.0061
     26 C         139.6080  139.0310  161.0354 C.3     1  UNL1        0.0237
     27 C         140.6735  140.9485  160.6376 C.3     1  UNL1        0.0724
     28 C         139.2308  139.0028  162.4869 C.ar    1  UNL1       -0.0225
     29 C         138.6313  140.2183  163.1298 C.ar    1  UNL1       -0.0043
     30 C         138.2541  140.1901  164.5813 C.ar    1  UNL1        0.0035
     31 C         138.4764  138.9465  165.3900 C.ar    1  UNL1        0.0714
     32 C         139.0759  137.7310  164.7471 C.ar    1  UNL1        0.0035
     33 C         139.4531  137.7592  163.2956 C.ar    1  UNL1       -0.0043
     34 C         138.0992  138.9183  166.8415 C.3     1  UNL1        0.4186
     35 F         137.7221  138.8901  168.2931 F       1  UNL1       -0.1659
     36 F         137.3231  137.6548  166.6153 F       1  UNL1       -0.1659
     37 F         138.8754  140.1818  167.0677 F       1  UNL1       -0.1659
@<TRIPOS>UNITY_ATOM_ATTR
18 1
charge -1
@<TRIPOS>BOND
     1    10    11    1
     2    11    12   ar
     3    12    13   ar
     4    13    17    1
     5    17    18   ar
     6    17    19   ar
     7    13    14   ar
     8    14    15   ar
     9    15    16   ar
    10    16     4    1
    11     4     5   ar
    12     5     6   ar
    13     6     7   ar
    14     7     3    1
    15     3     2    1
    16     2     1    1
    17     1    20    1
    18    20    21    1
    19    21    22    1
    20    22    23    1
    21    24    23    1
    22    24    25    1
    23    25    26    1
    24    26    28    1
    25    28    29   ar
    26    29    30   ar
    27    30    31   ar
    28    31    34    1
    29    34    35    1
    30    34    36    1
    31    34    37    1
    32    31    32   ar
    33    32    33   ar
    34    24    27    1
    35     7     8   ar
    36     8     9    1
    37    16    11   ar
    38     8     4   ar
    39    27    21    1
    40    26    24    1
    41    33    28   ar
@<TRIPOS>MOLECULE
*****
 37 41 0 0 0
SMALL
GASTEIGER

@<TRIPOS>ATOM
      1 C         143.6736  140.4625  158.9740 C.3     1  UNL1        0.0294
      2 C         143.9516  141.3132  160.1777 C.3     1  UNL1        0.0666
      3 S         144.1335  140.6736  161.5223 S.3     1  UNL1       -0.0756
      4 C         143.1436  142.2652  164.9212 C.ar    1  UNL1        0.1680
      5 N         144.2124  143.2107  164.4587 N.ar    1  UNL1       -0.1282
      6 N         144.7133  142.7295  163.1292 N.ar    1  UNL1       -0.1221
      7 C         143.9541  141.4867  162.7700 C.ar    1  UNL1        0.1932
      8 N         142.9840  141.1997  163.8774 N.ar    1  UNL1       -0.2884
      9 C         142.0230  140.0493  163.9317 C.3     1  UNL1        0.1340
     10 C         140.3581  143.3790  164.9071 C.3     1  UNL1        0.0522
     11 C         140.9775  142.9242  166.1953 C.ar    1  UNL1        0.0623
     12 N         140.2041  143.0264  167.4765 N.ar    1  UNL1       -0.2484
     13 CA        140.8235  142.5716  168.7647 C.ar    1  UNL1        0.0948
     14 C         142.2163  142.0147  168.7718 C.ar    1  UNL1        0.0204
     15 C         142.9897  141.9126  167.4906 C.ar    1  UNL1        0.0058
     16 C         142.3702  142.3673  166.2024 C.ar    1  UNL1        0.0495
     17 C         140.0501  142.6737  170.0460 C.2     1  UNL1        0.0905
     18 O         139.7543  144.0197  170.6382 O.co2   1  UNL1       -0.5430
     19 OXT       139.5726  141.4298  170.7349 O.co2   1  UNL1       -0.5430
     20 C         142.7656  139.2741  159.0889 C.3     1  UNL1        0.0730
     21 N         141.2780  139.4590  159.0374 N.3     1  UNL1       -0.2726
     22 C         140.4525  139.6244  157.7960 C.3     1  UNL1        0.0721
     23 C         139.0189  139.7786  158.2098 C.3     1  UNL1        0.0190
     24 C         138.9585  139.7086  159.7069 C.3     1  UNL1        0.0201
     25 C         137.4727  139.8852  159.8123 C.3     1  UNL1        0.0061
     26 C         138.2982  139.7199  161.0538 C.3     1  UNL1        0.0237
     27 C         140.3547  139.5111  160.2185 C.3     1  UNL1        0.0724
     28 C         138.3936  139.6309  162.5481 C.ar    1  UNL1       -0.0225
     29 C         138.7802  138.3361  163.1992 C.ar    1  UNL1       -0.0043
     30 C         138.8757  138.2471  164.6935 C.ar    1  UNL1        0.0035
     31 C         138.5844  139.4530  165.5367 C.ar    1  UNL1        0.0714
     32 C         138.1978  140.7479  164.8856 C.ar    1  UNL1        0.0035
     33 C         138.1024  140.8368  163.3913 C.ar    1  UNL1       -0.0043
     34 C         138.6798  139.3641  167.0310 C.3     1  UNL1        0.4186
     35 F         138.7753  139.2751  168.5253 F       1  UNL1       -0.1659
     36 F         137.2599  138.8847  167.0931 F       1  UNL1       -0.1659
     37 F         140.0998  139.8434  166.9688 F       1  UNL1       -0.1659
@<TRIPOS>UNITY_ATOM_ATTR
18 1
charge -1
@<TRIPOS>BOND
     1    10    11    1
     2    11    12   ar
     3    12    13   ar
     4    13    17    1
     5    17    18   ar
     6    17    19   ar
     7    13    14   ar
     8    14    15   ar
     9    15    16   ar
    10    16     4    1
    11     4     5   ar
    12     5     6   ar
    13     6     7   ar
    14     7     3    1
    15     3     2    1
    16     2     1    1
    17     1    20    1
    18    20    21    1
    19    21    22    1
    20    22    23    1
    21    24    23    1
    22    24    25    1
    23    25    26    1
    24    26    28    1
    25    28    29   ar
    26    29    30   ar
    27    30    31   ar
    28    31    34    1
    29    34    35    1
    30    34    36    1
    31    34    37    1
    32    31    32   ar
    33    32    33   ar
    34    24    27    1
    35     7     8   ar
    36     8     9    1
    37    16    11   ar
    38     8     4   ar
    39    27    21    1
    40    26    24    1
    41    33    28   ar
@<TRIPOS>MOLECULE
*****
 37 41 0 0 0
SMALL
GASTEIGER

@<TRIPOS>ATOM
      1 C         138.0071  139.9590  161.4325 C.3     1  UNL1        0.0294
      2 C         138.0587  138.5197  161.8519 C.3     1  UNL1        0.0666
      3 S         139.2492  137.9991  162.6014 S.3     1  UNL1       -0.0756
      4 C         141.0809  140.2623  165.1683 C.ar    1  UNL1        0.1680
      5 N         141.8687  140.5404  163.9224 N.ar    1  UNL1       -0.1282
      6 N         141.2784  139.7265  162.8093 N.ar    1  UNL1       -0.1221
      7 C         140.1258  138.9453  163.3671 C.ar    1  UNL1        0.1932
      8 N         140.0037  139.2764  164.8250 N.ar    1  UNL1       -0.2884
      9 C         138.9835  138.7194  165.7732 C.3     1  UNL1        0.1340
     10 C         143.0268  138.9730  167.0526 C.3     1  UNL1        0.0522
     11 C         142.3000  140.2196  167.4621 C.ar    1  UNL1        0.0623
     12 N         142.5462  140.8216  168.8138 N.ar    1  UNL1       -0.2484
     13 CA        141.8194  142.0682  169.2232 C.ar    1  UNL1        0.0948
     14 C         140.8464  142.7130  168.2810 C.ar    1  UNL1        0.0204
     15 C         140.6002  142.1109  166.9294 C.ar    1  UNL1        0.0058
     16 C         141.3270  140.8643  166.5199 C.ar    1  UNL1        0.0495
     17 C         142.0655  142.6702  170.5749 C.2     1  UNL1        0.0905
     18 O         141.2214  142.2583  171.7444 O.co2   1  UNL1       -0.5430
     19 OXT       143.1558  143.6841  170.7571 O.co2   1  UNL1       -0.5430
     20 C         137.7458  140.3135  159.9987 C.3     1  UNL1        0.0730
     21 N         138.4510  141.4809  159.3742 N.3     1  UNL1       -0.2726
     22 C         138.1562  142.0712  158.0271 C.3     1  UNL1        0.0721
     23 C         139.0978  143.2180  157.8076 C.3     1  UNL1        0.0190
     24 C         139.9745  143.3364  159.0189 C.3     1  UNL1        0.0201
     25 C         140.7675  144.5098  158.5245 C.3     1  UNL1        0.0061
     26 C         141.0623  143.9194  159.8716 C.3     1  UNL1        0.0237
     27 C         139.5747  142.2628  159.9872 C.3     1  UNL1        0.0724
     28 C         141.8604  143.9151  161.1415 C.ar    1  UNL1       -0.0225
     29 C         141.2842  144.5112  162.3916 C.ar    1  UNL1       -0.0043
     30 C         142.0824  144.5069  163.6616 C.ar    1  UNL1        0.0035
     31 C         143.4568  143.9065  163.6815 C.ar    1  UNL1        0.0714
     32 C         144.0331  143.3104  162.4314 C.ar    1  UNL1        0.0035
     33 C         143.2349  143.3147  161.1615 C.ar    1  UNL1       -0.0043
     34 C         144.2550  143.9022  164.9515 C.3     1  UNL1        0.4186
     35 F         145.0532  143.8979  166.2215 F       1  UNL1       -0.1659
     36 F         144.2801  145.4019  164.9408 F       1  UNL1       -0.1659
     37 F         144.2299  142.4025  164.9622 F       1  UNL1       -0.1659
@<TRIPOS>UNITY_ATOM_ATTR
18 1
charge -1
@<TRIPOS>BOND
     1    10    11    1
     2    11    12   ar
     3    12    13   ar
     4    13    17    1
     5    17    18   ar
     6    17    19   ar
     7    13    14   ar
     8    14    15   ar
     9    15    16   ar
    10    16     4    1
    11     4     5   ar
    12     5     6   ar
    13     6     7   ar
    14     7     3    1
    15     3     2    1
    16     2     1    1
    17     1    20    1
    18    20    21    1
    19    21    22    1
    20    22    23    1
    21    24    23    1
    22    24    25    1
    23    25    26    1
    24    26    28    1
    25    28    29   ar
    26    29    30   ar
    27    30    31   ar
    28    31    34    1
    29    34    35    1
    30    34    36    1
    31    34    37    1
    32    31    32   ar
    33    32    33   ar
    34    24    27    1
    35     7     8   ar
    36     8     9    1
    37    16    11   ar
    38     8     4   ar
    39    27    21    1
    40    26    24    1
    41    33    28   ar
@<TRIPOS>MOLECULE
*****
 37 41 0 0 0
SMALL
GASTEIGER

@<TRIPOS>ATOM
      1 C         142.4343  138.4974  161.3258 C.3     1  UNL1        0.0294
      2 C         143.8293  139.0474  161.2875 C.3     1  UNL1        0.0666
      3 S         144.1468  140.3360  161.9866 S.3     1  UNL1       -0.0756
      4 C         142.0594  141.1354  165.1599 C.ar    1  UNL1        0.1680
      5 N         141.5650  142.1897  164.2144 N.ar    1  UNL1       -0.1282
      6 N         142.2867  142.0186  162.9106 N.ar    1  UNL1       -0.1221
      7 C         143.2273  140.8585  163.0503 C.ar    1  UNL1        0.1932
      8 N         143.0868  140.3126  164.4404 N.ar    1  UNL1       -0.2884
      9 C         143.8413  139.1484  165.0108 C.3     1  UNL1        0.1340
     10 C         139.4345  139.7963  165.7221 C.3     1  UNL1        0.0522
     11 C         140.2936  140.2689  166.8572 C.ar    1  UNL1        0.0623
     12 N         139.8402  140.0718  168.2734 N.ar    1  UNL1       -0.2484
     13 CA        140.6994  140.5444  169.4085 C.ar    1  UNL1        0.0948
     14 C         142.0120  141.2140  169.1275 C.ar    1  UNL1        0.0204
     15 C         142.4653  141.4109  167.7112 C.ar    1  UNL1        0.0058
     16 C         141.6061  140.9384  166.5761 C.ar    1  UNL1        0.0495
     17 C         140.2461  140.3474  170.8247 C.2     1  UNL1        0.0905
     18 O         140.8095  141.2051  171.9187 O.co2   1  UNL1       -0.5430
     19 OXT       139.2294  139.2927  171.1470 O.co2   1  UNL1       -0.5430
     20 C         141.7814  138.0197  160.0627 C.3     1  UNL1        0.0730
     21 N         140.7615  138.8779  159.3746 N.3     1  UNL1       -0.2726
     22 C         140.2656  138.7032  157.9698 C.3     1  UNL1        0.0721
     23 C         139.2561  139.7788  157.6976 C.3     1  UNL1        0.0190
     24 C         139.1282  140.6182  158.9342 C.3     1  UNL1        0.0201
     25 C         138.1005  141.5594  158.3792 C.3     1  UNL1        0.0061
     26 C         138.5965  141.7340  159.7840 C.3     1  UNL1        0.0237
     27 C         140.0586  140.0614  159.9706 C.3     1  UNL1        0.0724
     28 C         138.5759  142.4791  161.0857 C.ar    1  UNL1       -0.0225
     29 C         139.3721  143.7409  161.2403 C.ar    1  UNL1       -0.0043
     30 C         139.3515  144.4859  162.5421 C.ar    1  UNL1        0.0035
     31 C         138.5346  143.9692  163.6891 C.ar    1  UNL1        0.0714
     32 C         137.7384  142.7074  163.5344 C.ar    1  UNL1        0.0035
     33 C         137.7590  141.9623  162.2327 C.ar    1  UNL1       -0.0043
     34 C         138.5140  144.7142  164.9908 C.3     1  UNL1        0.4186
     35 F         138.4934  145.4593  166.2926 F       1  UNL1       -0.1659
     36 F         139.9563  145.0813  164.8035 F       1  UNL1       -0.1659
     37 F         137.0717  144.3471  165.1781 F       1  UNL1       -0.1659
@<TRIPOS>UNITY_ATOM_ATTR
18 1
charge -1
@<TRIPOS>BOND
     1    10    11    1
     2    11    12   ar
     3    12    13   ar
     4    13    17    1
     5    17    18   ar
     6    17    19   ar
     7    13    14   ar
     8    14    15   ar
     9    15    16   ar
    10    16     4    1
    11     4     5   ar
    12     5     6   ar
    13     6     7   ar
    14     7     3    1
    15     3     2    1
    16     2     1    1
    17     1    20    1
    18    20    21    1
    19    21    22    1
    20    22    23    1
    21    24    23    1
    22    24    25    1
    23    25    26    1
    24    26    28    1
    25    28    29   ar
    26    29    30   ar
    27    30    31   ar
    28    31    34    1
    29    34    35    1
    30    34    36    1
    31    34    37    1
    32    31    32   ar
    33    32    33   ar
    34    24    27    1
    35     7     8   ar
    36     8     9    1
    37    16    11   ar
    38     8     4   ar
    39    27    21    1
    40    26    24    1
    41    33    28   ar
