@<TRIPOS>MOLECULE
*****
 44 47 0 0 0
SMALL
GASTEIGER

@<TRIPOS>ATOM
      1 N         138.1970  139.6174  163.2402 N.3     1  UNL1       -0.2660
      2 C         137.9928  141.0445  162.8257 C.3     1  UNL1        0.0942
      3 C         137.9761  141.4079  161.3705 C.3     1  UNL1        0.1107
      4 N         138.1636  140.3441  160.3297 N.am    1  UNL1       -0.2767
      5 C         138.1468  140.7075  158.8744 C.2     1  UNL1        0.2257
      6 O         138.3342  139.6438  157.8336 O.2     1  UNL1       -0.2749
      7 C         138.3677  138.9170  160.7441 C.3     1  UNL1        0.1107
      8 C         138.3844  138.5537  162.1993 C.3     1  UNL1        0.0942
      9 C         138.2137  139.2541  164.6954 C.3     1  UNL1        0.0992
     10 C         141.6547  140.5379  167.2956 C.ar    1  UNL1        0.1306
     11 C         141.9170  139.8193  166.0054 C.ar    1  UNL1        0.0106
     12 C         140.7700  139.3914  165.1386 C.ar    1  UNL1       -0.0042
     13 C         139.3607  139.6820  165.5621 C.ar    1  UNL1       -0.0066
     14 C         139.0984  140.4006  166.8524 C.ar    1  UNL1       -0.0042
     15 C         140.2454  140.8285  167.7191 C.ar    1  UNL1        0.0106
     16 C         143.3263  139.5287  165.5818 C.3     1  UNL1        0.0218
     17 C         143.4353  140.9065  164.9990 C.3     1  UNL1        0.0045
     18 C         143.2173  138.1509  166.1647 C.3     1  UNL1        0.0045
     19 C         144.7356  139.2380  165.1583 C.3     1  UNL1        0.0045
     20 C         139.9830  141.5471  169.0095 C.3     1  UNL1        0.0218
     21 C         139.4891  140.2694  169.6206 C.3     1  UNL1        0.0045
     22 C         140.4769  142.8248  168.3984 C.3     1  UNL1        0.0045
     23 C         139.7207  142.2656  170.2998 C.3     1  UNL1        0.0045
     24 C         143.0347  140.2946  169.4834 C.3     1  UNL1        0.2524
     25 O         142.8017  140.9658  168.1624 O.3     1  UNL1       -0.4721
     26 C         137.9427  142.1346  158.4600 C.3     1  UNL1        0.0853
     27 C         139.1271  143.0277  158.2377 C.3     1  UNL1        0.0096
     28 C         140.4842  142.6076  158.7193 C.3     1  UNL1        0.0012
     29 C         141.1682  143.3841  159.8052 C.3     1  UNL1        0.0087
     30 C         141.3228  142.7855  161.1718 C.3     1  UNL1        0.0446
     31 C         142.1453  141.5451  161.3588 C.ar    1  UNL1       -0.0183
     32 C         143.6429  141.6290  161.3437 C.ar    1  UNL1       -0.0017
     33 C         144.4654  140.3886  161.5307 C.ar    1  UNL1        0.0293
     34 C         143.7904  139.0644  161.7328 C.ar    1  UNL1        0.1401
     35 F         144.6129  137.8241  161.9197 F       1  UNL1       -0.2042
     36 C         142.2927  138.9806  161.7479 C.ar    1  UNL1        0.0293
     37 C         141.4703  140.2210  161.5609 C.ar    1  UNL1       -0.0017
     38 C         140.6547  143.4273  162.3516 C.ar    1  UNL1       -0.0183
     39 C         139.6367  144.5085  162.1406 C.ar    1  UNL1       -0.0017
     40 C         138.9687  145.1503  163.3203 C.ar    1  UNL1        0.0293
     41 C         139.3187  144.7109  164.7111 C.ar    1  UNL1        0.1401
     42 F         138.6506  145.3527  165.8909 F       1  UNL1       -0.2042
     43 C         140.3368  143.6297  164.9222 C.ar    1  UNL1        0.0293
     44 C         141.0048  142.9879  163.7425 C.ar    1  UNL1       -0.0017
@<TRIPOS>BOND
     1    24    25    1
     2    25    10    1
     3    10    11   ar
     4    11    16    1
     5    16    17    1
     6    16    18    1
     7    16    19    1
     8    11    12   ar
     9    12    13   ar
    10    13     9    1
    11     9     1    1
    12     1     2    1
    13     2     3    1
    14     3     4    1
    15     4     5   am
    16     5     6    2
    17     5    26    1
    18    26    27    1
    19    27    28    1
    20    28    29    1
    21    29    30    1
    22    30    31    1
    23    31    32   ar
    24    32    33   ar
    25    33    34   ar
    26    34    35    1
    27    34    36   ar
    28    36    37   ar
    29    30    38    1
    30    38    39   ar
    31    39    40   ar
    32    40    41   ar
    33    41    42    1
    34    41    43   ar
    35    43    44   ar
    36     4     7    1
    37     7     8    1
    38    13    14   ar
    39    14    15   ar
    40    15    20    1
    41    20    21    1
    42    20    22    1
    43    20    23    1
    44    15    10   ar
    45     8     1    1
    46    37    31   ar
    47    44    38   ar
@<TRIPOS>MOLECULE
*****
 44 47 0 0 0
SMALL
GASTEIGER

@<TRIPOS>ATOM
      1 N         138.2712  139.5398  163.2454 N.3     1  UNL1       -0.2660
      2 C         137.9926  140.9519  162.8231 C.3     1  UNL1        0.0942
      3 C         137.9583  141.3061  161.3659 C.3     1  UNL1        0.1107
      4 N         138.2028  140.2482  160.3310 N.am    1  UNL1       -0.2767
      5 C         138.1685  140.6024  158.8738 C.2     1  UNL1        0.2257
      6 O         138.4130  139.5445  157.8389 O.2     1  UNL1       -0.2749
      7 C         138.4814  138.8361  160.7532 C.3     1  UNL1        0.1107
      8 C         138.5157  138.4819  162.2105 C.3     1  UNL1        0.0942
      9 C         138.3055  139.1856  164.7025 C.3     1  UNL1        0.0992
     10 C         141.7858  140.4707  167.2493 C.ar    1  UNL1        0.1306
     11 C         142.0290  139.7782  165.9412 C.ar    1  UNL1        0.0106
     12 C         140.8689  139.3499  165.0922 C.ar    1  UNL1       -0.0042
     13 C         139.4656  139.6140  165.5515 C.ar    1  UNL1       -0.0066
     14 C         139.2224  140.3065  166.8596 C.ar    1  UNL1       -0.0042
     15 C         140.3824  140.7348  167.7085 C.ar    1  UNL1        0.0106
     16 C         143.4323  139.5141  165.4819 C.3     1  UNL1        0.0218
     17 C         143.4038  138.1780  166.1631 C.3     1  UNL1        0.0045
     18 C         143.4608  140.8502  164.8007 C.3     1  UNL1        0.0045
     19 C         144.8356  139.2500  165.0226 C.3     1  UNL1        0.0045
     20 C         140.1392  141.4274  169.0167 C.3     1  UNL1        0.0218
     21 C         140.1276  140.1008  169.7167 C.3     1  UNL1        0.0045
     22 C         140.1508  142.7539  168.3167 C.3     1  UNL1        0.0045
     23 C         139.8959  142.1198  170.3249 C.3     1  UNL1        0.0045
     24 C         143.4218  142.3209  168.0556 C.3     1  UNL1        0.2524
     25 O         142.9459  140.8991  168.0982 O.3     1  UNL1       -0.4721
     26 C         137.8899  142.0145  158.4516 C.3     1  UNL1        0.0853
     27 C         138.9726  143.0494  158.5337 C.3     1  UNL1        0.0096
     28 C         140.4074  142.6264  158.6455 C.3     1  UNL1        0.0012
     29 C         141.3002  143.2653  159.6676 C.3     1  UNL1        0.0087
     30 C         141.4224  142.6648  161.0367 C.3     1  UNL1        0.0446
     31 C         140.7588  143.3265  162.2080 C.ar    1  UNL1       -0.0183
     32 C         141.1013  142.8988  163.6043 C.ar    1  UNL1       -0.0017
     33 C         140.4377  143.5605  164.7755 C.ar    1  UNL1        0.0293
     34 C         139.4315  144.6501  164.5504 C.ar    1  UNL1        0.1401
     35 F         138.7679  145.3118  165.7215 F       1  UNL1       -0.2042
     36 C         139.0891  145.0778  163.1540 C.ar    1  UNL1        0.0293
     37 C         139.7527  144.4161  161.9828 C.ar    1  UNL1       -0.0017
     38 C         142.2082  141.4025  161.2346 C.ar    1  UNL1       -0.0183
     39 C         141.4970  140.1137  161.5228 C.ar    1  UNL1       -0.0017
     40 C         142.2829  138.8514  161.7207 C.ar    1  UNL1        0.0293
     41 C         143.7799  138.8780  161.6305 C.ar    1  UNL1        0.1401
     42 F         144.5657  137.6157  161.8284 F       1  UNL1       -0.2042
     43 C         144.4911  140.1668  161.3423 C.ar    1  UNL1        0.0293
     44 C         143.7053  141.4291  161.1444 C.ar    1  UNL1       -0.0017
@<TRIPOS>BOND
     1    24    25    1
     2    25    10    1
     3    10    11   ar
     4    11    16    1
     5    16    17    1
     6    16    18    1
     7    16    19    1
     8    11    12   ar
     9    12    13   ar
    10    13     9    1
    11     9     1    1
    12     1     2    1
    13     2     3    1
    14     3     4    1
    15     4     5   am
    16     5     6    2
    17     5    26    1
    18    26    27    1
    19    27    28    1
    20    28    29    1
    21    29    30    1
    22    30    31    1
    23    31    32   ar
    24    32    33   ar
    25    33    34   ar
    26    34    35    1
    27    34    36   ar
    28    36    37   ar
    29    30    38    1
    30    38    39   ar
    31    39    40   ar
    32    40    41   ar
    33    41    42    1
    34    41    43   ar
    35    43    44   ar
    36     4     7    1
    37     7     8    1
    38    13    14   ar
    39    14    15   ar
    40    15    20    1
    41    20    21    1
    42    20    22    1
    43    20    23    1
    44    15    10   ar
    45     8     1    1
    46    37    31   ar
    47    44    38   ar
@<TRIPOS>MOLECULE
*****
 44 47 0 0 0
SMALL
GASTEIGER

@<TRIPOS>ATOM
      1 N         138.2345  139.5177  163.2847 N.3     1  UNL1       -0.2660
      2 C         137.9540  140.9246  162.8462 C.3     1  UNL1        0.0942
      3 C         137.9397  141.2662  161.3857 C.3     1  UNL1        0.1107
      4 N         138.2059  140.2011  160.3637 N.am    1  UNL1       -0.2767
      5 C         138.1916  140.5428  158.9031 C.2     1  UNL1        0.2257
      6 O         138.4578  139.4777  157.8811 O.2     1  UNL1       -0.2749
      7 C         138.4865  138.7943  160.8021 C.3     1  UNL1        0.1107
      8 C         138.5008  138.4526  162.2626 C.3     1  UNL1        0.0942
      9 C         138.2488  139.1761  164.7452 C.3     1  UNL1        0.0992
     10 C         141.6752  140.5166  167.3361 C.ar    1  UNL1        0.1306
     11 C         140.2628  140.7951  167.7572 C.ar    1  UNL1        0.0106
     12 C         139.1207  140.3483  166.8936 C.ar    1  UNL1       -0.0042
     13 C         139.3910  139.6229  165.6088 C.ar    1  UNL1       -0.0066
     14 C         140.8034  139.3444  165.1876 C.ar    1  UNL1       -0.0042
     15 C         141.9455  139.7913  166.0513 C.ar    1  UNL1        0.0106
     16 C         139.9924  141.5205  169.0421 C.3     1  UNL1        0.0218
     17 C         140.4815  142.7969  168.4244 C.3     1  UNL1        0.0045
     18 C         139.5034  140.2441  169.6598 C.3     1  UNL1        0.0045
     19 C         139.7221  142.2458  170.3269 C.3     1  UNL1        0.0045
     20 C         143.3580  139.5127  165.6300 C.3     1  UNL1        0.0218
     21 C         143.2461  138.1201  166.1757 C.3     1  UNL1        0.0045
     22 C         143.4700  140.9054  165.0843 C.3     1  UNL1        0.0045
     23 C         144.7704  139.2342  165.2088 C.3     1  UNL1        0.0045
     24 C         143.0559  140.3064  169.5268 C.3     1  UNL1        0.2524
     25 O         142.8174  140.9635  168.1997 O.3     1  UNL1       -0.4721
     26 C         137.9110  141.9496  158.4647 C.3     1  UNL1        0.0853
     27 C         139.0127  142.9675  158.4604 C.3     1  UNL1        0.0096
     28 C         140.4155  142.5560  158.7963 C.3     1  UNL1        0.0012
     29 C         141.1828  143.2981  159.8501 C.3     1  UNL1        0.0087
     30 C         141.3348  142.7095  161.2214 C.3     1  UNL1        0.0446
     31 C         140.6615  143.3577  162.3947 C.ar    1  UNL1       -0.0183
     32 C         140.9660  142.8897  163.7869 C.ar    1  UNL1       -0.0017
     33 C         140.2927  143.5379  164.9601 C.ar    1  UNL1        0.0293
     34 C         139.3149  144.6541  164.7412 C.ar    1  UNL1        0.1401
     35 F         138.6416  145.3023  165.9144 F       1  UNL1       -0.2042
     36 C         139.0104  145.1221  163.3489 C.ar    1  UNL1        0.0293
     37 C         139.6837  144.4739  162.1757 C.ar    1  UNL1       -0.0017
     38 C         142.1601  141.4727  161.4195 C.ar    1  UNL1       -0.0183
     39 C         141.4882  140.1451  161.6091 C.ar    1  UNL1       -0.0017
     40 C         142.3135  138.9083  161.8072 C.ar    1  UNL1        0.0293
     41 C         143.8107  138.9991  161.8156 C.ar    1  UNL1        0.1401
     42 F         144.6360  137.7623  162.0136 F       1  UNL1       -0.2042
     43 C         144.4827  140.3268  161.6259 C.ar    1  UNL1        0.0293
     44 C         143.6574  141.5635  161.4278 C.ar    1  UNL1       -0.0017
@<TRIPOS>BOND
     1    24    25    1
     2    25    10    1
     3    10    11   ar
     4    11    16    1
     5    16    17    1
     6    16    18    1
     7    16    19    1
     8    11    12   ar
     9    12    13   ar
    10    13     9    1
    11     9     1    1
    12     1     2    1
    13     2     3    1
    14     3     4    1
    15     4     5   am
    16     5     6    2
    17     5    26    1
    18    26    27    1
    19    27    28    1
    20    28    29    1
    21    29    30    1
    22    30    31    1
    23    31    32   ar
    24    32    33   ar
    25    33    34   ar
    26    34    35    1
    27    34    36   ar
    28    36    37   ar
    29    30    38    1
    30    38    39   ar
    31    39    40   ar
    32    40    41   ar
    33    41    42    1
    34    41    43   ar
    35    43    44   ar
    36     4     7    1
    37     7     8    1
    38    13    14   ar
    39    14    15   ar
    40    15    20    1
    41    20    21    1
    42    20    22    1
    43    20    23    1
    44    15    10   ar
    45     8     1    1
    46    37    31   ar
    47    44    38   ar
@<TRIPOS>MOLECULE
*****
 44 47 0 0 0
SMALL
GASTEIGER

@<TRIPOS>ATOM
      1 N         143.9641  143.3740  162.8575 N.3     1  UNL1       -0.2660
      2 C         142.7498  144.2071  162.5722 C.3     1  UNL1        0.0942
      3 C         142.2433  144.3378  161.1664 C.3     1  UNL1        0.1107
      4 N         142.9510  143.6354  160.0458 N.am    1  UNL1       -0.2767
      5 C         142.4445  143.7661  158.6399 C.2     1  UNL1        0.2257
      6 O         143.1522  143.0637  157.5194 O.2     1  UNL1       -0.2749
      7 C         144.1653  142.8023  160.3310 C.3     1  UNL1        0.1107
      8 C         144.6719  142.6716  161.7369 C.3     1  UNL1        0.0942
      9 C         144.4706  143.2433  164.2633 C.3     1  UNL1        0.0992
     10 C         142.2465  140.6913  167.2282 C.ar    1  UNL1        0.1306
     11 C         142.5276  140.1684  165.8507 C.ar    1  UNL1        0.0106
     12 C         143.2690  141.0191  164.8624 C.ar    1  UNL1       -0.0042
     13 C         143.7292  142.3927  165.2516 C.ar    1  UNL1       -0.0066
     14 C         143.4480  142.9156  166.6290 C.ar    1  UNL1       -0.0042
     15 C         142.7066  142.0649  167.6173 C.ar    1  UNL1        0.0106
     16 C         142.0674  138.7948  165.4615 C.3     1  UNL1        0.0218
     17 C         140.7298  139.3525  165.0747 C.3     1  UNL1        0.0045
     18 C         143.4051  138.2371  165.8482 C.3     1  UNL1        0.0045
     19 C         141.6073  137.4212  165.0723 C.3     1  UNL1        0.0045
     20 C         142.4255  142.5879  168.9949 C.3     1  UNL1        0.0218
     21 C         141.0099  142.8811  168.5945 C.3     1  UNL1        0.0045
     22 C         143.8410  142.2947  169.3952 C.3     1  UNL1        0.0045
     23 C         142.1442  143.1108  170.3723 C.3     1  UNL1        0.0045
     24 C         142.2558  139.1152  169.2935 C.3     1  UNL1        0.2524
     25 O         141.5051  139.8407  168.2165 O.3     1  UNL1       -0.4721
     26 C         141.2302  144.5992  158.3547 C.3     1  UNL1        0.0853
     27 C         139.8764  143.9560  158.2954 C.3     1  UNL1        0.0096
     28 C         139.6442  142.6339  158.9649 C.3     1  UNL1        0.0012
     29 C         138.7525  142.5488  160.1680 C.3     1  UNL1        0.0087
     30 C         139.2985  142.0479  161.4722 C.3     1  UNL1        0.0446
     31 C         139.0962  142.8461  162.7261 C.ar    1  UNL1       -0.0183
     32 C         140.0816  142.7371  163.8517 C.ar    1  UNL1       -0.0017
     33 C         139.8794  143.5353  165.1055 C.ar    1  UNL1        0.0293
     34 C         138.6917  144.4425  165.2337 C.ar    1  UNL1        0.1401
     35 F         138.4894  145.2407  166.4874 F       1  UNL1       -0.2042
     36 C         137.7063  144.5515  164.1080 C.ar    1  UNL1        0.0293
     37 C         137.9085  143.7533  162.8542 C.ar    1  UNL1       -0.0017
     38 C         140.0466  140.7488  161.5227 C.ar    1  UNL1       -0.0183
     39 C         141.5460  140.7480  161.5653 C.ar    1  UNL1       -0.0017
     40 C         142.2942  139.4489  161.6157 C.ar    1  UNL1        0.0293
     41 C         141.5430  138.1506  161.6236 C.ar    1  UNL1        0.1401
     42 F         142.2912  136.8515  161.6740 F       1  UNL1       -0.2042
     43 C         140.0436  138.1513  161.5810 C.ar    1  UNL1        0.0293
     44 C         139.2954  139.4504  161.5305 C.ar    1  UNL1       -0.0017
@<TRIPOS>BOND
     1    24    25    1
     2    25    10    1
     3    10    11   ar
     4    11    16    1
     5    16    17    1
     6    16    18    1
     7    16    19    1
     8    11    12   ar
     9    12    13   ar
    10    13     9    1
    11     9     1    1
    12     1     2    1
    13     2     3    1
    14     3     4    1
    15     4     5   am
    16     5     6    2
    17     5    26    1
    18    26    27    1
    19    27    28    1
    20    28    29    1
    21    29    30    1
    22    30    31    1
    23    31    32   ar
    24    32    33   ar
    25    33    34   ar
    26    34    35    1
    27    34    36   ar
    28    36    37   ar
    29    30    38    1
    30    38    39   ar
    31    39    40   ar
    32    40    41   ar
    33    41    42    1
    34    41    43   ar
    35    43    44   ar
    36     4     7    1
    37     7     8    1
    38    13    14   ar
    39    14    15   ar
    40    15    20    1
    41    20    21    1
    42    20    22    1
    43    20    23    1
    44    15    10   ar
    45     8     1    1
    46    37    31   ar
    47    44    38   ar
@<TRIPOS>MOLECULE
*****
 44 47 0 0 0
SMALL
GASTEIGER

@<TRIPOS>ATOM
      1 N         138.2502  139.5205  163.2585 N.3     1  UNL1       -0.2660
      2 C         138.0086  140.9318  162.8116 C.3     1  UNL1        0.0942
      3 C         138.0036  141.2650  161.3491 C.3     1  UNL1        0.1107
      4 N         138.2403  140.1868  160.3335 N.am    1  UNL1       -0.2767
      5 C         138.2354  140.5201  158.8709 C.2     1  UNL1        0.2257
      6 O         138.4721  139.4419  157.8553 O.2     1  UNL1       -0.2749
      7 C         138.4820  138.7755  160.7803 C.3     1  UNL1        0.1107
      8 C         138.4869  138.4423  162.2429 C.3     1  UNL1        0.0942
      9 C         138.2552  139.1873  164.7210 C.3     1  UNL1        0.0992
     10 C         141.6746  140.5259  167.3221 C.ar    1  UNL1        0.1306
     11 C         140.2612  140.8070  167.7380 C.ar    1  UNL1        0.0106
     12 C         139.1213  140.3608  166.8710 C.ar    1  UNL1       -0.0042
     13 C         139.3950  139.6335  165.5881 C.ar    1  UNL1       -0.0066
     14 C         140.8084  139.3523  165.1721 C.ar    1  UNL1       -0.0042
     15 C         141.9482  139.7985  166.0392 C.ar    1  UNL1        0.0106
     16 C         139.9875  141.5344  169.0211 C.3     1  UNL1        0.0218
     17 C         139.5012  140.2581  169.6410 C.3     1  UNL1        0.0045
     18 C         140.4737  142.8108  168.4011 C.3     1  UNL1        0.0045
     19 C         139.7138  142.2618  170.3040 C.3     1  UNL1        0.0045
     20 C         143.3618  139.5173  165.6232 C.3     1  UNL1        0.0218
     21 C         143.2562  138.1360  166.1982 C.3     1  UNL1        0.0045
     22 C         143.4674  140.8986  165.0481 C.3     1  UNL1        0.0045
     23 C         144.7752  139.2361  165.2072 C.3     1  UNL1        0.0045
     24 C         143.0514  140.3117  169.5149 C.3     1  UNL1        0.2524
     25 O         142.8144  140.9721  168.1891 O.3     1  UNL1       -0.4721
     26 C         137.9937  141.9314  158.4241 C.3     1  UNL1        0.0853
     27 C         138.9613  143.0136  158.8015 C.3     1  UNL1        0.0096
     28 C         140.4362  142.7408  158.7834 C.3     1  UNL1        0.0012
     29 C         141.3257  143.3567  159.8224 C.3     1  UNL1        0.0087
     30 C         141.4226  142.7414  161.1869 C.3     1  UNL1        0.0446
     31 C         142.2109  141.4810  161.3871 C.ar    1  UNL1       -0.0183
     32 C         143.7102  141.5254  161.3822 C.ar    1  UNL1       -0.0017
     33 C         144.4985  140.2650  161.5824 C.ar    1  UNL1        0.0293
     34 C         143.7874  138.9602  161.7874 C.ar    1  UNL1        0.1401
     35 F         144.5757  137.6999  161.9876 F       1  UNL1       -0.2042
     36 C         142.2881  138.9159  161.7923 C.ar    1  UNL1        0.0293
     37 C         141.4998  140.1763  161.5921 C.ar    1  UNL1       -0.0017
     38 C         140.7312  143.3865  162.3513 C.ar    1  UNL1       -0.0183
     39 C         139.7195  144.4689  162.1172 C.ar    1  UNL1       -0.0017
     40 C         139.0282  145.1140  163.2816 C.ar    1  UNL1        0.0293
     41 C         139.3485  144.6767  164.6802 C.ar    1  UNL1        0.1401
     42 F         138.6571  145.3217  165.8446 F       1  UNL1       -0.2042
     43 C         140.3602  143.5942  164.9144 C.ar    1  UNL1        0.0293
     44 C         141.0516  142.9492  163.7500 C.ar    1  UNL1       -0.0017
@<TRIPOS>BOND
     1    24    25    1
     2    25    10    1
     3    10    11   ar
     4    11    16    1
     5    16    17    1
     6    16    18    1
     7    16    19    1
     8    11    12   ar
     9    12    13   ar
    10    13     9    1
    11     9     1    1
    12     1     2    1
    13     2     3    1
    14     3     4    1
    15     4     5   am
    16     5     6    2
    17     5    26    1
    18    26    27    1
    19    27    28    1
    20    28    29    1
    21    29    30    1
    22    30    31    1
    23    31    32   ar
    24    32    33   ar
    25    33    34   ar
    26    34    35    1
    27    34    36   ar
    28    36    37   ar
    29    30    38    1
    30    38    39   ar
    31    39    40   ar
    32    40    41   ar
    33    41    42    1
    34    41    43   ar
    35    43    44   ar
    36     4     7    1
    37     7     8    1
    38    13    14   ar
    39    14    15   ar
    40    15    20    1
    41    20    21    1
    42    20    22    1
    43    20    23    1
    44    15    10   ar
    45     8     1    1
    46    37    31   ar
    47    44    38   ar
@<TRIPOS>MOLECULE
*****
 44 47 0 0 0
SMALL
GASTEIGER

@<TRIPOS>ATOM
      1 N         139.1075  144.0221  162.8632 N.3     1  UNL1       -0.2660
      2 C         138.2622  142.8479  162.4672 C.3     1  UNL1        0.0942
      3 C         138.1682  142.4435  161.0258 C.3     1  UNL1        0.1107
      4 N         138.9196  143.2132  159.9804 N.am    1  UNL1       -0.2767
      5 C         138.8256  142.8087  158.5389 C.2     1  UNL1        0.2257
      6 O         139.5770  143.5784  157.4935 O.2     1  UNL1       -0.2749
      7 C         139.7649  144.3873  160.3763 C.3     1  UNL1        0.1107
      8 C         139.8589  144.7918  161.8177 C.3     1  UNL1        0.0942
      9 C         139.2014  144.4265  164.3045 C.3     1  UNL1        0.0992
     10 C         141.9701  142.2224  167.0841 C.ar    1  UNL1        0.1306
     11 C         140.6132  142.6493  167.5600 C.ar    1  UNL1        0.0106
     12 C         139.6903  143.3841  166.6335 C.ar    1  UNL1       -0.0042
     13 C         140.1243  143.6918  165.2310 C.ar    1  UNL1       -0.0066
     14 C         141.4812  143.2648  164.7551 C.ar    1  UNL1       -0.0042
     15 C         142.4041  142.5301  165.6817 C.ar    1  UNL1        0.0106
     16 C         140.1791  142.3416  168.9625 C.3     1  UNL1        0.0218
     17 C         139.8774  140.9287  168.5592 C.3     1  UNL1        0.0045
     18 C         140.4808  143.7545  169.3659 C.3     1  UNL1        0.0045
     19 C         139.7451  142.0339  170.3650 C.3     1  UNL1        0.0045
     20 C         143.7610  142.1031  165.2057 C.3     1  UNL1        0.0218
     21 C         144.3002  143.4673  165.5192 C.3     1  UNL1        0.0045
     22 C         143.2218  140.7390  164.8922 C.3     1  UNL1        0.0045
     23 C         145.1179  141.6762  164.7298 C.3     1  UNL1        0.0045
     24 C         143.6761  142.2426  169.0434 C.3     1  UNL1        0.2524
     25 O         142.8929  141.4876  168.0107 O.3     1  UNL1       -0.4721
     26 C         137.9803  141.6345  158.1430 C.3     1  UNL1        0.0853
     27 C         138.5422  140.2459  158.2203 C.3     1  UNL1        0.0096
     28 C         139.7108  139.9584  159.1158 C.3     1  UNL1        0.0012
     29 C         139.5203  139.1393  160.3579 C.3     1  UNL1        0.0087
     30 C         140.2713  139.4879  161.6086 C.3     1  UNL1        0.0446
     31 C         139.6872  139.1589  162.9505 C.ar    1  UNL1       -0.0183
     32 C         139.3214  140.2610  163.8999 C.ar    1  UNL1       -0.0017
     33 C         138.7373  139.9320  165.2418 C.ar    1  UNL1        0.0293
     34 C         138.5191  138.5008  165.6343 C.ar    1  UNL1        0.1401
     35 F         137.9350  138.1718  166.9761 F       1  UNL1       -0.2042
     36 C         138.8849  137.3986  164.6848 C.ar    1  UNL1        0.0293
     37 C         139.4689  137.7277  163.3430 C.ar    1  UNL1       -0.0017
     38 C         141.6065  140.1654  161.5175 C.ar    1  UNL1       -0.0183
     39 C         142.8558  139.3460  161.3850 C.ar    1  UNL1       -0.0017
     40 C         144.1910  140.0235  161.2939 C.ar    1  UNL1        0.0293
     41 C         144.2768  141.5205  161.3353 C.ar    1  UNL1        0.1401
     42 F         145.6119  142.1980  161.2443 F       1  UNL1       -0.2042
     43 C         143.0274  142.3400  161.4679 C.ar    1  UNL1        0.0293
     44 C         141.6922  141.6624  161.5590 C.ar    1  UNL1       -0.0017
@<TRIPOS>BOND
     1    24    25    1
     2    25    10    1
     3    10    11   ar
     4    11    16    1
     5    16    17    1
     6    16    18    1
     7    16    19    1
     8    11    12   ar
     9    12    13   ar
    10    13     9    1
    11     9     1    1
    12     1     2    1
    13     2     3    1
    14     3     4    1
    15     4     5   am
    16     5     6    2
    17     5    26    1
    18    26    27    1
    19    27    28    1
    20    28    29    1
    21    29    30    1
    22    30    31    1
    23    31    32   ar
    24    32    33   ar
    25    33    34   ar
    26    34    35    1
    27    34    36   ar
    28    36    37   ar
    29    30    38    1
    30    38    39   ar
    31    39    40   ar
    32    40    41   ar
    33    41    42    1
    34    41    43   ar
    35    43    44   ar
    36     4     7    1
    37     7     8    1
    38    13    14   ar
    39    14    15   ar
    40    15    20    1
    41    20    21    1
    42    20    22    1
    43    20    23    1
    44    15    10   ar
    45     8     1    1
    46    37    31   ar
    47    44    38   ar
@<TRIPOS>MOLECULE
*****
 44 47 0 0 0
SMALL
GASTEIGER

@<TRIPOS>ATOM
      1 N         139.0941  143.9994  162.8729 N.3     1  UNL1       -0.2660
      2 C         138.2301  142.8420  162.4681 C.3     1  UNL1        0.0942
      3 C         138.1415  142.4407  161.0255 C.3     1  UNL1        0.1107
      4 N         138.9168  143.1968  159.9877 N.am    1  UNL1       -0.2767
      5 C         138.8281  142.7954  158.5450 C.2     1  UNL1        0.2257
      6 O         139.6035  143.5515  157.5072 O.2     1  UNL1       -0.2749
      7 C         139.7808  144.3542  160.3924 C.3     1  UNL1        0.1107
      8 C         139.8695  144.7556  161.8350 C.3     1  UNL1        0.0942
      9 C         139.1828  144.4007  164.3154 C.3     1  UNL1        0.0992
     10 C         141.9620  142.2086  167.0940 C.ar    1  UNL1        0.1306
     11 C         142.3875  142.5033  165.6862 C.ar    1  UNL1        0.0106
     12 C         141.4611  143.2340  164.7600 C.ar    1  UNL1       -0.0042
     13 C         140.1092  143.6700  165.2416 C.ar    1  UNL1       -0.0066
     14 C         139.6836  143.3754  166.6495 C.ar    1  UNL1       -0.0042
     15 C         140.6101  142.6447  167.5757 C.ar    1  UNL1        0.0106
     16 C         143.7396  142.0672  165.2045 C.3     1  UNL1        0.0218
     17 C         143.1921  140.7039  164.9020 C.3     1  UNL1        0.0045
     18 C         144.2870  143.4305  165.5070 C.3     1  UNL1        0.0045
     19 C         145.0915  141.6312  164.7228 C.3     1  UNL1        0.0045
     20 C         140.1844  142.3501  168.9836 C.3     1  UNL1        0.0218
     21 C         140.4757  143.7702  169.3688 C.3     1  UNL1        0.0045
     22 C         139.8932  140.9300  168.5984 C.3     1  UNL1        0.0045
     23 C         139.7589  142.0555  170.3914 C.3     1  UNL1        0.0045
     24 C         143.6446  142.2321  169.0735 C.3     1  UNL1        0.2524
     25 O         142.8884  141.4779  168.0203 O.3     1  UNL1       -0.4721
     26 C         137.9641  141.6380  158.1403 C.3     1  UNL1        0.0853
     27 C         138.4729  140.2347  158.2879 C.3     1  UNL1        0.0096
     28 C         139.6676  139.9570  159.1514 C.3     1  UNL1        0.0012
     29 C         139.5246  139.1063  160.3785 C.3     1  UNL1        0.0087
     30 C         140.2744  139.4609  161.6283 C.3     1  UNL1        0.0446
     31 C         139.6916  139.1330  162.9711 C.ar    1  UNL1       -0.0183
     32 C         139.3281  140.2359  163.9205 C.ar    1  UNL1       -0.0017
     33 C         138.7453  139.9080  165.2633 C.ar    1  UNL1        0.0293
     34 C         138.5261  138.4771  165.6565 C.ar    1  UNL1        0.1401
     35 F         137.9434  138.1492  166.9992 F       1  UNL1       -0.2042
     36 C         138.8897  137.3742  164.7070 C.ar    1  UNL1        0.0293
     37 C         139.4724  137.7022  163.3644 C.ar    1  UNL1       -0.0017
     38 C         141.6069  140.1434  161.5355 C.ar    1  UNL1       -0.0183
     39 C         141.6874  141.6406  161.5795 C.ar    1  UNL1       -0.0017
     40 C         143.0199  142.3231  161.4866 C.ar    1  UNL1        0.0293
     41 C         144.2719  141.5084  161.3498 C.ar    1  UNL1        0.1401
     42 F         145.6044  142.1909  161.2570 F       1  UNL1       -0.2042
     43 C         144.1914  140.0112  161.3058 C.ar    1  UNL1        0.0293
     44 C         142.8589  139.3287  161.3987 C.ar    1  UNL1       -0.0017
@<TRIPOS>BOND
     1    24    25    1
     2    25    10    1
     3    10    11   ar
     4    11    16    1
     5    16    17    1
     6    16    18    1
     7    16    19    1
     8    11    12   ar
     9    12    13   ar
    10    13     9    1
    11     9     1    1
    12     1     2    1
    13     2     3    1
    14     3     4    1
    15     4     5   am
    16     5     6    2
    17     5    26    1
    18    26    27    1
    19    27    28    1
    20    28    29    1
    21    29    30    1
    22    30    31    1
    23    31    32   ar
    24    32    33   ar
    25    33    34   ar
    26    34    35    1
    27    34    36   ar
    28    36    37   ar
    29    30    38    1
    30    38    39   ar
    31    39    40   ar
    32    40    41   ar
    33    41    42    1
    34    41    43   ar
    35    43    44   ar
    36     4     7    1
    37     7     8    1
    38    13    14   ar
    39    14    15   ar
    40    15    20    1
    41    20    21    1
    42    20    22    1
    43    20    23    1
    44    15    10   ar
    45     8     1    1
    46    37    31   ar
    47    44    38   ar
@<TRIPOS>MOLECULE
*****
 44 47 0 0 0
SMALL
GASTEIGER

@<TRIPOS>ATOM
      1 N         144.1747  143.2804  162.9150 N.3     1  UNL1       -0.2660
      2 C         142.9548  144.0324  162.4719 C.3     1  UNL1        0.0942
      3 C         142.5705  144.0507  161.0221 C.3     1  UNL1        0.1107
      4 N         143.4061  143.3171  160.0154 N.am    1  UNL1       -0.2767
      5 C         143.0217  143.3355  158.5655 C.2     1  UNL1        0.2257
      6 O         143.8573  142.6018  157.5588 O.2     1  UNL1       -0.2749
      7 C         144.6259  142.5651  160.4584 C.3     1  UNL1        0.1107
      8 C         145.0103  142.5467  161.9083 C.3     1  UNL1        0.0942
      9 C         144.5590  143.2620  164.3648 C.3     1  UNL1        0.0992
     10 C         142.2764  140.6876  167.2652 C.ar    1  UNL1        0.1306
     11 C         142.7411  142.0525  167.6788 C.ar    1  UNL1        0.0106
     12 C         143.5020  142.9106  166.7120 C.ar    1  UNL1       -0.0042
     13 C         143.7981  142.4039  165.3316 C.ar    1  UNL1       -0.0066
     14 C         143.3334  141.0390  164.9180 C.ar    1  UNL1       -0.0042
     15 C         142.5725  140.1809  165.8848 C.ar    1  UNL1        0.0106
     16 C         142.4450  142.5593  169.0592 C.3     1  UNL1        0.0218
     17 C         143.8647  142.2911  169.4623 C.3     1  UNL1        0.0045
     18 C         141.0253  142.8275  168.6561 C.3     1  UNL1        0.0045
     19 C         142.1488  143.0661  170.4396 C.3     1  UNL1        0.0045
     20 C         142.1078  138.8159  165.4712 C.3     1  UNL1        0.0218
     21 C         143.4159  138.2348  165.9194 C.3     1  UNL1        0.0045
     22 C         140.7996  139.3971  165.0230 C.3     1  UNL1        0.0045
     23 C         141.6431  137.4510  165.0576 C.3     1  UNL1        0.0045
     24 C         142.2398  139.1259  169.3412 C.3     1  UNL1        0.2524
     25 O         141.5155  139.8295  168.2320 O.3     1  UNL1       -0.4721
     26 C         141.8019  144.0875  158.1225 C.3     1  UNL1        0.0853
     27 C         140.4529  143.4352  158.1905 C.3     1  UNL1        0.0096
     28 C         139.5565  143.6869  159.3666 C.3     1  UNL1        0.0012
     29 C         138.8803  142.5378  160.0538 C.3     1  UNL1        0.0087
     30 C         139.4046  142.0349  161.3661 C.3     1  UNL1        0.0446
     31 C         139.1750  142.8275  162.6188 C.ar    1  UNL1       -0.0183
     32 C         137.9608  143.6994  162.7426 C.ar    1  UNL1       -0.0017
     33 C         137.7311  144.4919  163.9954 C.ar    1  UNL1        0.0293
     34 C         138.7157  144.4124  165.1242 C.ar    1  UNL1        0.1401
     35 F         138.4861  145.2049  166.3769 F       1  UNL1       -0.2042
     36 C         139.9300  143.5404  165.0003 C.ar    1  UNL1        0.0293
     37 C         140.1596  142.7480  163.7476 C.ar    1  UNL1       -0.0017
     38 C         140.1587  140.7396  161.4257 C.ar    1  UNL1       -0.0183
     39 C         141.6583  140.7455  161.4550 C.ar    1  UNL1       -0.0017
     40 C         142.4124  139.4501  161.5147 C.ar    1  UNL1        0.0293
     41 C         141.6668  138.1490  161.5450 C.ar    1  UNL1        0.1401
     42 F         142.4208  136.8536  161.6047 F       1  UNL1       -0.2042
     43 C         140.1670  138.1431  161.5157 C.ar    1  UNL1        0.0293
     44 C         139.4130  139.4384  161.4560 C.ar    1  UNL1       -0.0017
@<TRIPOS>BOND
     1    24    25    1
     2    25    10    1
     3    10    11   ar
     4    11    16    1
     5    16    17    1
     6    16    18    1
     7    16    19    1
     8    11    12   ar
     9    12    13   ar
    10    13     9    1
    11     9     1    1
    12     1     2    1
    13     2     3    1
    14     3     4    1
    15     4     5   am
    16     5     6    2
    17     5    26    1
    18    26    27    1
    19    27    28    1
    20    28    29    1
    21    29    30    1
    22    30    31    1
    23    31    32   ar
    24    32    33   ar
    25    33    34   ar
    26    34    35    1
    27    34    36   ar
    28    36    37   ar
    29    30    38    1
    30    38    39   ar
    31    39    40   ar
    32    40    41   ar
    33    41    42    1
    34    41    43   ar
    35    43    44   ar
    36     4     7    1
    37     7     8    1
    38    13    14   ar
    39    14    15   ar
    40    15    20    1
    41    20    21    1
    42    20    22    1
    43    20    23    1
    44    15    10   ar
    45     8     1    1
    46    37    31   ar
    47    44    38   ar
@<TRIPOS>MOLECULE
*****
 44 47 0 0 0
SMALL
GASTEIGER

@<TRIPOS>ATOM
      1 N         139.2778  144.3515  163.4298 N.3     1  UNL1       -0.2660
      2 C         138.6781  143.5584  162.3066 C.3     1  UNL1        0.0942
      3 C         139.1965  143.7270  160.9092 C.3     1  UNL1        0.1107
      4 N         140.3147  144.6886  160.6349 N.am    1  UNL1       -0.2767
      5 C         140.8331  144.8572  159.2374 C.2     1  UNL1        0.2257
      6 O         141.9512  145.8187  158.9632 O.2     1  UNL1       -0.2749
      7 C         140.9143  145.4816  161.7581 C.3     1  UNL1        0.1107
      8 C         140.3959  145.3130  163.1555 C.3     1  UNL1        0.0942
      9 C         138.7594  144.1829  164.8272 C.3     1  UNL1        0.0992
     10 C         140.4633  140.9787  167.4880 C.ar    1  UNL1        0.1306
     11 C         139.6482  140.6010  166.2867 C.ar    1  UNL1        0.0106
     12 C         139.0803  141.6691  165.3998 C.ar    1  UNL1       -0.0042
     13 C         139.3274  143.1148  165.7141 C.ar    1  UNL1       -0.0066
     14 C         140.1424  143.4924  166.9154 C.ar    1  UNL1       -0.0042
     15 C         140.7104  142.4244  167.8023 C.ar    1  UNL1        0.0106
     16 C         139.4011  139.1553  165.9724 C.3     1  UNL1        0.0218
     17 C         140.7409  139.0717  165.3032 C.3     1  UNL1        0.0045
     18 C         138.0613  139.2389  166.6415 C.3     1  UNL1        0.0045
     19 C         139.1539  137.7096  165.6581 C.3     1  UNL1        0.0045
     20 C         141.5255  142.8021  169.0036 C.3     1  UNL1        0.0218
     21 C         142.7718  142.3564  168.2980 C.3     1  UNL1        0.0045
     22 C         140.2792  143.2478  169.7092 C.3     1  UNL1        0.0045
     23 C         142.3406  143.1797  170.2048 C.3     1  UNL1        0.0045
     24 C         140.4886  139.7190  169.7601 C.3     1  UNL1        0.2524
     25 O         141.0313  139.9106  168.3749 O.3     1  UNL1       -0.4721
     26 C         140.2334  144.0642  158.1143 C.3     1  UNL1        0.0853
     27 C         140.9166  142.8216  157.6253 C.3     1  UNL1        0.0096
     28 C         140.9923  141.6107  158.5074 C.3     1  UNL1        0.0012
     29 C         142.1270  141.4585  159.4765 C.3     1  UNL1        0.0087
     30 C         141.8450  141.2518  160.9351 C.3     1  UNL1        0.0446
     31 C         140.8926  140.1776  161.3701 C.ar    1  UNL1       -0.0183
     32 C         141.3836  138.7737  161.5643 C.ar    1  UNL1       -0.0017
     33 C         140.4312  137.6994  161.9992 C.ar    1  UNL1        0.0293
     34 C         138.9878  138.0293  162.2399 C.ar    1  UNL1        0.1401
     35 F         138.0355  136.9551  162.6748 F       1  UNL1       -0.2042
     36 C         138.4969  139.4333  162.0456 C.ar    1  UNL1        0.0293
     37 C         139.4492  140.5075  161.6107 C.ar    1  UNL1       -0.0017
     38 C         142.5153  142.1193  161.9589 C.ar    1  UNL1       -0.0183
     39 C         142.1459  141.9925  163.4071 C.ar    1  UNL1       -0.0017
     40 C         142.8162  142.8600  164.4309 C.ar    1  UNL1        0.0293
     41 C         143.8559  143.8543  164.0065 C.ar    1  UNL1        0.1401
     42 F         144.5262  144.7218  165.0303 F       1  UNL1       -0.2042
     43 C         144.2254  143.9812  162.5582 C.ar    1  UNL1        0.0293
     44 C         143.5551  143.1137  161.5344 C.ar    1  UNL1       -0.0017
@<TRIPOS>BOND
     1    24    25    1
     2    25    10    1
     3    10    11   ar
     4    11    16    1
     5    16    17    1
     6    16    18    1
     7    16    19    1
     8    11    12   ar
     9    12    13   ar
    10    13     9    1
    11     9     1    1
    12     1     2    1
    13     2     3    1
    14     3     4    1
    15     4     5   am
    16     5     6    2
    17     5    26    1
    18    26    27    1
    19    27    28    1
    20    28    29    1
    21    29    30    1
    22    30    31    1
    23    31    32   ar
    24    32    33   ar
    25    33    34   ar
    26    34    35    1
    27    34    36   ar
    28    36    37   ar
    29    30    38    1
    30    38    39   ar
    31    39    40   ar
    32    40    41   ar
    33    41    42    1
    34    41    43   ar
    35    43    44   ar
    36     4     7    1
    37     7     8    1
    38    13    14   ar
    39    14    15   ar
    40    15    20    1
    41    20    21    1
    42    20    22    1
    43    20    23    1
    44    15    10   ar
    45     8     1    1
    46    37    31   ar
    47    44    38   ar
