@<TRIPOS>MOLECULE
*****
 34 38 0 0 0
SMALL
GASTEIGER

@<TRIPOS>ATOM
      1 C         141.0714  138.8475  161.1955 C.ar    1  UNL1        0.0659
      2 C         139.8325  138.0020  161.1825 C.ar    1  UNL1        0.0159
      3 C         139.0225  137.8393  162.4345 C.ar    1  UNL1        0.0014
      4 C         139.4514  138.5219  163.6994 C.ar    1  UNL1        0.0032
      5 C         138.5069  138.2295  164.8273 C.ar    1  UNL1        0.0016
      6 C         138.5681  138.7103  166.2470 C.ar    1  UNL1        0.0192
      7 C         139.5889  139.6022  166.8891 C.ar    1  UNL1        0.0844
      8 N         139.2769  139.8383  168.3372 N.ar    1  UNL1       -0.2437
      9 C         140.1766  140.7059  169.1664 C.ar    1  UNL1        0.0989
     10 C         141.3884  141.3374  168.5476 C.ar    1  UNL1        0.0223
     11 C         141.7004  141.1013  167.0996 C.ar    1  UNL1        0.0063
     12 C         140.8006  140.2337  166.2703 C.ar    1  UNL1        0.0566
     13 C         141.2909  140.1292  164.8564 C.ar    1  UNL1        0.1970
     14 O         142.5477  140.8866  164.5458 O.2     1  UNL1       -0.2865
     15 C         140.6904  139.3674  163.7123 C.ar    1  UNL1        0.0403
     16 C         141.5004  139.5301  162.4604 C.ar    1  UNL1        0.0191
     17 C         142.2882  142.2051  169.3769 C.ar    1  UNL1        0.0411
     18 C         141.8461  143.2382  170.3705 C.ar    1  UNL1        0.1217
     19 N         143.0728  143.8635  170.9657 N.ar    1  UNL1       -0.1676
     20 N         144.2729  143.2168  170.3401 N.ar    1  UNL1       -0.2473
     21 C         145.7063  143.5386  170.6431 C.3     1  UNL1        0.1538
     22 C         143.7880  142.1918  169.3581 C.ar    1  UNL1        0.0967
     23 N         141.8815  139.0102  159.9436 N.pl3   1  UNL1       -0.2052
     24 H         141.8769  138.3029  159.2588 H       1  UNL1        0.1748
     25 S         142.6986  140.2507  159.7349 S.O2    1  UNL1        0.1131
     26 O         143.9419  139.4920  160.0931 O.2     1  UNL1       -0.1379
     27 O         141.4552  141.0094  159.3767 O.2     1  UNL1       -0.1379
     28 C         144.2432  141.7011  158.2314 C.3     1  UNL1        0.1163
     29 N         143.5157  141.4913  159.5263 N.3     1  UNL1       -0.1402
     30 C         143.6053  142.5218  160.6125 C.3     1  UNL1        0.1129
     31 C         144.5994  142.5349  161.7357 C.3     1  UNL1        0.0524
     32 C         144.3250  143.7414  162.5836 C.3     1  UNL1        0.1438
     33 O         143.1613  144.4741  161.9843 O.3     1  UNL1       -0.3522
     34 C         142.7165  143.7203  160.7661 C.3     1  UNL1        0.1598
@<TRIPOS>BOND
     1    28    29    1
     2    30    29    1
     3    30    31    1
     4    31    32    1
     5    32    33    1
     6    33    34    1
     7    29    25    1
     8    25    26    2
     9    25    27    2
    10    25    23    1
    11    23     1    1
    12     1     2   ar
    13     2     3   ar
    14     3     4   ar
    15     4     5   ar
    16     5     6   ar
    17     6     7   ar
    18     7     8   ar
    19     8     9   ar
    20     9    10   ar
    21    10    17    1
    22    17    18   ar
    23    18    19   ar
    24    19    20   ar
    25    20    21    1
    26    20    22   ar
    27    10    11   ar
    28    11    12   ar
    29    12    13   ar
    30    13    14    2
    31    13    15   ar
    32    15    16   ar
    33    34    30    1
    34    16     1   ar
    35    15     4   ar
    36    12     7   ar
    37    22    17   ar
    38    23    24    1
@<TRIPOS>MOLECULE
*****
 34 38 0 0 0
SMALL
GASTEIGER

@<TRIPOS>ATOM
      1 C         140.7857  139.9863  160.1346 C.ar    1  UNL1        0.0659
      2 C         139.9490  138.7551  159.9500 C.ar    1  UNL1        0.0159
      3 C         139.3021  138.1032  161.1360 C.ar    1  UNL1        0.0014
      4 C         139.4920  138.6824  162.5065 C.ar    1  UNL1        0.0032
      5 C         138.7640  137.8820  163.5454 C.ar    1  UNL1        0.0016
      6 C         138.6929  138.1150  165.0256 C.ar    1  UNL1        0.0192
      7 C         139.3323  139.2060  165.8322 C.ar    1  UNL1        0.0844
      8 N         139.0066  139.0722  167.2904 N.ar    1  UNL1       -0.2437
      9 C         139.5493  140.0657  168.2743 C.ar    1  UNL1        0.0989
     10 C         140.4176  141.1932  167.8002 C.ar    1  UNL1        0.0223
     11 C         140.7433  141.3271  166.3421 C.ar    1  UNL1        0.0063
     12 C         140.2006  140.3335  165.3581 C.ar    1  UNL1        0.0566
     13 C         140.6441  140.6484  163.9601 C.ar    1  UNL1        0.1970
     14 O         141.5185  141.8581  163.8117 O.2     1  UNL1       -0.2865
     15 C         140.3287  139.9136  162.6911 C.ar    1  UNL1        0.0403
     16 C         140.9755  140.5655  161.5052 C.ar    1  UNL1        0.0191
     17 C         140.9604  142.1869  168.7842 C.ar    1  UNL1        0.0411
     18 C         140.1985  143.3211  169.4032 C.ar    1  UNL1        0.1217
     19 N         141.1276  144.0559  170.3234 N.ar    1  UNL1       -0.1676
     20 N         142.4636  143.3759  170.2732 N.ar    1  UNL1       -0.2473
     21 C         143.6881  143.7800  171.0397 C.3     1  UNL1        0.1538
     22 C         142.3603  142.2208  169.3219 C.ar    1  UNL1        0.0967
     23 N         141.4326  140.6382  158.9486 N.pl3   1  UNL1       -0.2052
     24 H         141.7536  140.0875  158.1984 H       1  UNL1        0.1748
     25 S         141.5903  142.1293  158.9057 S.O2    1  UNL1        0.1131
     26 O         143.0331  141.9877  159.2907 O.2     1  UNL1       -0.1379
     27 O         140.1475  142.2708  158.5208 O.2     1  UNL1       -0.1379
     28 C         142.5446  144.2590  157.7639 C.3     1  UNL1        0.1163
     29 N         141.7480  143.6204  158.8628 N.3     1  UNL1       -0.1402
     30 C         141.1093  144.4728  159.9189 C.3     1  UNL1        0.1129
     31 C         141.3387  144.3647  161.3973 C.3     1  UNL1        0.0524
     32 C         140.5002  145.4081  162.0741 C.3     1  UNL1        0.1438
     33 O         139.7525  146.1612  161.0139 O.3     1  UNL1       -0.3522
     34 C         140.1289  145.5831  159.6820 C.3     1  UNL1        0.1598
@<TRIPOS>BOND
     1    28    29    1
     2    30    29    1
     3    30    31    1
     4    31    32    1
     5    32    33    1
     6    33    34    1
     7    29    25    1
     8    25    26    2
     9    25    27    2
    10    25    23    1
    11    23     1    1
    12     1     2   ar
    13     2     3   ar
    14     3     4   ar
    15     4     5   ar
    16     5     6   ar
    17     6     7   ar
    18     7     8   ar
    19     8     9   ar
    20     9    10   ar
    21    10    17    1
    22    17    18   ar
    23    18    19   ar
    24    19    20   ar
    25    20    21    1
    26    20    22   ar
    27    10    11   ar
    28    11    12   ar
    29    12    13   ar
    30    13    14    2
    31    13    15   ar
    32    15    16   ar
    33    34    30    1
    34    16     1   ar
    35    15     4   ar
    36    12     7   ar
    37    22    17   ar
    38    23    24    1
@<TRIPOS>MOLECULE
*****
 34 38 0 0 0
SMALL
GASTEIGER

@<TRIPOS>ATOM
      1 C         140.3009  143.0029  165.6113 C.ar    1  UNL1        0.0659
      2 C         139.3119  144.1280  165.6890 C.ar    1  UNL1        0.0159
      3 C         139.0907  145.0154  164.5001 C.ar    1  UNL1        0.0014
      4 C         139.8585  144.7778  163.2336 C.ar    1  UNL1        0.0032
      5 C         139.4886  145.7726  162.1737 C.ar    1  UNL1        0.0016
      6 C         140.0163  145.8881  160.7743 C.ar    1  UNL1        0.0192
      7 C         141.0443  145.0373  160.0893 C.ar    1  UNL1        0.0844
      8 N         141.2851  145.4955  158.6814 N.ar    1  UNL1       -0.2437
      9 C         142.2800  144.7774  157.8188 C.ar    1  UNL1        0.0989
     10 C         143.0342  143.6009  158.3639 C.ar    1  UNL1        0.0223
     11 C         142.7935  143.1426  159.7717 C.ar    1  UNL1        0.0063
     12 C         141.7985  143.8608  160.6345 C.ar    1  UNL1        0.0566
     13 C         141.7109  143.2447  161.9993 C.ar    1  UNL1        0.1970
     14 O         142.6049  142.0643  162.2390 O.2     1  UNL1       -0.2865
     15 C         140.8475  143.6528  163.1560 C.ar    1  UNL1        0.0403
     16 C         141.0687  142.7653  164.3448 C.ar    1  UNL1        0.0191
     17 C         144.0292  142.8826  157.5012 C.ar    1  UNL1        0.0411
     18 C         145.3824  142.3990  157.9315 C.ar    1  UNL1        0.1217
     19 N         146.0351  141.7394  156.7530 N.ar    1  UNL1       -0.1676
     20 N         145.0854  141.8154  155.5944 N.ar    1  UNL1       -0.2473
     21 C         145.3320  141.2790  154.2154 C.3     1  UNL1        0.1538
     22 C         143.8457  142.5219  156.0568 C.ar    1  UNL1        0.0967
     23 N         140.5222  142.1154  166.8002 N.pl3   1  UNL1       -0.2052
     24 H         140.0348  142.2850  167.6386 H       1  UNL1        0.1748
     25 S         141.4860  140.9695  166.7117 S.O2    1  UNL1        0.1131
     26 O         140.3631  140.0554  166.3198 O.2     1  UNL1       -0.1379
     27 O         142.6088  141.8836  167.1036 O.2     1  UNL1       -0.1379
     28 C         142.8515  139.0837  167.8647 C.3     1  UNL1        0.1163
     29 N         142.4498  139.8234  166.6232 N.3     1  UNL1       -0.1402
     30 C         143.0118  139.4172  165.2931 C.3     1  UNL1        0.1129
     31 C         144.2615  139.9560  164.6623 C.3     1  UNL1        0.0524
     32 C         144.4449  139.2726  163.3397 C.3     1  UNL1        0.1438
     33 O         143.3085  138.3115  163.1531 O.3     1  UNL1       -0.3522
     34 C         142.4228  138.4008  164.3604 C.3     1  UNL1        0.1598
@<TRIPOS>BOND
     1    28    29    1
     2    30    29    1
     3    30    31    1
     4    31    32    1
     5    32    33    1
     6    33    34    1
     7    29    25    1
     8    25    26    2
     9    25    27    2
    10    25    23    1
    11    23     1    1
    12     1     2   ar
    13     2     3   ar
    14     3     4   ar
    15     4     5   ar
    16     5     6   ar
    17     6     7   ar
    18     7     8   ar
    19     8     9   ar
    20     9    10   ar
    21    10    17    1
    22    17    18   ar
    23    18    19   ar
    24    19    20   ar
    25    20    21    1
    26    20    22   ar
    27    10    11   ar
    28    11    12   ar
    29    12    13   ar
    30    13    14    2
    31    13    15   ar
    32    15    16   ar
    33    34    30    1
    34    16     1   ar
    35    15     4   ar
    36    12     7   ar
    37    22    17   ar
    38    23    24    1
@<TRIPOS>MOLECULE
*****
 34 38 0 0 0
SMALL
GASTEIGER

@<TRIPOS>ATOM
      1 C         140.3272  141.2913  165.2074 C.ar    1  UNL1        0.0659
      2 C         139.7054  142.5448  165.7478 C.ar    1  UNL1        0.0159
      3 C         139.6731  143.7879  164.9089 C.ar    1  UNL1        0.0014
      4 C         140.2626  143.7774  163.5296 C.ar    1  UNL1        0.0032
      5 C         140.1264  145.1153  162.8653 C.ar    1  UNL1        0.0016
      6 C         140.5783  145.5303  161.4965 C.ar    1  UNL1        0.0192
      7 C         141.2781  144.7096  160.4540 C.ar    1  UNL1        0.0844
      8 N         141.5524  145.5130  159.2173 N.ar    1  UNL1       -0.2437
      9 C         142.2473  144.8782  158.0494 C.ar    1  UNL1        0.0989
     10 C         142.6679  143.4400  158.1181 C.ar    1  UNL1        0.0223
     11 C         142.3937  142.6367  159.3548 C.ar    1  UNL1        0.0063
     12 C         141.6987  143.2715  160.5227 C.ar    1  UNL1        0.0566
     13 C         141.5235  142.2987  161.6511 C.ar    1  UNL1        0.1970
     14 O         142.0581  140.9183  161.4091 O.2     1  UNL1       -0.2865
     15 C         140.8843  142.5239  162.9892 C.ar    1  UNL1        0.0403
     16 C         140.9166  141.2809  163.8281 C.ar    1  UNL1        0.0191
     17 C         143.3629  142.8051  156.9502 C.ar    1  UNL1        0.0411
     18 C         143.3350  143.2974  155.5335 C.ar    1  UNL1        0.1217
     19 N         144.1626  142.3630  154.7018 N.ar    1  UNL1       -0.1676
     20 N         144.7020  141.2932  155.6043 N.ar    1  UNL1       -0.2473
     21 C         145.5813  140.1507  155.1900 C.3     1  UNL1        0.1538
     22 C         144.2078  141.5664  156.9939 C.ar    1  UNL1        0.0967
     23 N         140.3595  140.0482  166.0463 N.pl3   1  UNL1       -0.2052
     24 H         140.0304  139.1968  165.6775 H       1  UNL1        0.1748
     25 S         140.8933  140.1023  167.4470 S.O2    1  UNL1        0.1131
     26 O         139.5537  139.6808  167.9738 O.2     1  UNL1       -0.1379
     27 O         142.2330  140.5237  166.9201 O.2     1  UNL1       -0.1379
     28 C         142.4827  139.1850  169.2862 C.3     1  UNL1        0.1163
     29 N         141.4271  140.1564  168.8478 N.3     1  UNL1       -0.1402
     30 C         140.9053  141.1818  169.8102 C.3     1  UNL1        0.1129
     31 C         140.2959  142.5032  169.4460 C.3     1  UNL1        0.0524
     32 C         139.9153  143.2040  170.7164 C.3     1  UNL1        0.1438
     33 O         140.2895  142.3156  171.8658 O.3     1  UNL1       -0.3522
     34 C         140.9014  141.0659  171.3057 C.3     1  UNL1        0.1598
@<TRIPOS>BOND
     1    28    29    1
     2    30    29    1
     3    30    31    1
     4    31    32    1
     5    32    33    1
     6    33    34    1
     7    29    25    1
     8    25    26    2
     9    25    27    2
    10    25    23    1
    11    23     1    1
    12     1     2   ar
    13     2     3   ar
    14     3     4   ar
    15     4     5   ar
    16     5     6   ar
    17     6     7   ar
    18     7     8   ar
    19     8     9   ar
    20     9    10   ar
    21    10    17    1
    22    17    18   ar
    23    18    19   ar
    24    19    20   ar
    25    20    21    1
    26    20    22   ar
    27    10    11   ar
    28    11    12   ar
    29    12    13   ar
    30    13    14    2
    31    13    15   ar
    32    15    16   ar
    33    34    30    1
    34    16     1   ar
    35    15     4   ar
    36    12     7   ar
    37    22    17   ar
    38    23    24    1
@<TRIPOS>MOLECULE
*****
 34 38 0 0 0
SMALL
GASTEIGER

@<TRIPOS>ATOM
      1 C         141.8816  139.6058  165.0752 C.ar    1  UNL1        0.0659
      2 C         141.0471  138.4041  165.4062 C.ar    1  UNL1        0.0159
      3 C         139.9344  137.9885  164.4903 C.ar    1  UNL1        0.0014
      4 C         139.6561  138.7745  163.2434 C.ar    1  UNL1        0.0032
      5 C         138.5079  138.1924  162.4735 C.ar    1  UNL1        0.0016
      6 C         137.9105  138.6682  161.1824 C.ar    1  UNL1        0.0192
      7 C         138.3139  139.8437  160.3425 C.ar    1  UNL1        0.0844
      8 N         137.4507  139.9671  159.1219 N.ar    1  UNL1       -0.2437
      9 C         137.6877  141.0804  158.1451 C.ar    1  UNL1        0.0989
     10 C         138.7880  142.0704  158.3887 C.ar    1  UNL1        0.0223
     11 C         139.6513  141.9470  159.6092 C.ar    1  UNL1        0.0063
     12 C         139.4142  140.8336  160.5861 C.ar    1  UNL1        0.0566
     13 C         140.3830  140.8926  161.7299 C.ar    1  UNL1        0.1970
     14 O         141.3752  142.0166  161.6850 O.2     1  UNL1       -0.2865
     15 C         140.4905  139.9762  162.9124 C.ar    1  UNL1        0.0403
     16 C         141.6033  140.3918  163.8284 C.ar    1  UNL1        0.0191
     17 C         139.0251  143.1838  157.4119 C.ar    1  UNL1        0.0411
     18 C         138.2382  143.4420  156.1613 C.ar    1  UNL1        0.1217
     19 N         138.8175  144.6522  155.4907 N.ar    1  UNL1       -0.1676
     20 N         139.9625  145.1420  156.3268 N.ar    1  UNL1       -0.2473
     21 C         140.8274  146.3306  156.0281 C.3     1  UNL1        0.1538
     22 C         140.0908  144.2344  157.5142 C.ar    1  UNL1        0.0967
     23 N         142.9944  140.0215  165.9912 N.pl3   1  UNL1       -0.2052
     24 H         143.9295  139.9592  165.6895 H       1  UNL1        0.1748
     25 S         142.6825  140.5321  167.3666 S.O2    1  UNL1        0.1131
     26 O         142.2915  141.8586  166.7856 O.2     1  UNL1       -0.1379
     27 O         143.0735  139.2057  167.9477 O.2     1  UNL1       -0.1379
     28 C         143.3282  141.9670  169.4341 C.3     1  UNL1        0.1163
     29 N         142.3706  141.0428  168.7422 N.3     1  UNL1       -0.1402
     30 C         141.1010  140.6293  169.4257 C.3     1  UNL1        0.1129
     31 C         139.7094  140.8603  168.9157 C.3     1  UNL1        0.0524
     32 C         138.7485  140.2859  169.9140 C.3     1  UNL1        0.1438
     33 O         139.5463  139.6999  171.0411 O.3     1  UNL1       -0.3522
     34 C         141.0002  139.9121  170.7393 C.3     1  UNL1        0.1598
@<TRIPOS>BOND
     1    28    29    1
     2    30    29    1
     3    30    31    1
     4    31    32    1
     5    32    33    1
     6    33    34    1
     7    29    25    1
     8    25    26    2
     9    25    27    2
    10    25    23    1
    11    23     1    1
    12     1     2   ar
    13     2     3   ar
    14     3     4   ar
    15     4     5   ar
    16     5     6   ar
    17     6     7   ar
    18     7     8   ar
    19     8     9   ar
    20     9    10   ar
    21    10    17    1
    22    17    18   ar
    23    18    19   ar
    24    19    20   ar
    25    20    21    1
    26    20    22   ar
    27    10    11   ar
    28    11    12   ar
    29    12    13   ar
    30    13    14    2
    31    13    15   ar
    32    15    16   ar
    33    34    30    1
    34    16     1   ar
    35    15     4   ar
    36    12     7   ar
    37    22    17   ar
    38    23    24    1
@<TRIPOS>MOLECULE
*****
 34 38 0 0 0
SMALL
GASTEIGER

@<TRIPOS>ATOM
      1 C         142.5857  144.0923  158.7081 C.ar    1  UNL1        0.0659
      2 C         141.5462  145.1467  158.4680 C.ar    1  UNL1        0.0159
      3 C         140.6082  145.5399  159.5704 C.ar    1  UNL1        0.0014
      4 C         140.7097  144.8787  160.9130 C.ar    1  UNL1        0.0032
      5 C         139.6840  145.4151  161.8670 C.ar    1  UNL1        0.0016
      6 C         139.4444  145.0297  163.2967 C.ar    1  UNL1        0.0192
      7 C         140.1714  144.0126  164.1255 C.ar    1  UNL1        0.0844
      8 N         139.6121  143.9371  165.5153 N.ar    1  UNL1       -0.2437
      9 C         140.1989  142.9788  166.5089 C.ar    1  UNL1        0.0989
     10 C         141.3450  142.0959  166.1127 C.ar    1  UNL1        0.0223
     11 C         141.9043  142.1714  164.7230 C.ar    1  UNL1        0.0063
     12 C         141.3175  143.1297  163.7293 C.ar    1  UNL1        0.0566
     13 C         142.0197  143.0459  162.4064 C.ar    1  UNL1        0.1970
     14 O         143.1406  142.0524  162.3265 O.2     1  UNL1       -0.2865
     15 C         141.7492  143.8243  161.1531 C.ar    1  UNL1        0.0403
     16 C         142.6872  143.4311  160.0506 C.ar    1  UNL1        0.0191
     17 C         141.9319  141.1375  167.1063 C.ar    1  UNL1        0.0411
     18 C         142.5311  139.7987  166.7922 C.ar    1  UNL1        0.1217
     19 N         142.9920  139.1836  168.0802 N.ar    1  UNL1       -0.1676
     20 N         142.6778  140.1421  169.1904 N.ar    1  UNL1       -0.2473
     21 C         142.9678  139.9302  170.6468 C.3     1  UNL1        0.1538
     22 C         142.0225  141.3497  168.5885 C.ar    1  UNL1        0.0967
     23 N         143.5238  143.6991  157.6055 N.pl3   1  UNL1       -0.2052
     24 H         143.9119  144.3888  157.0200 H       1  UNL1        0.1748
     25 S         143.8705  142.2549  157.3952 S.O2    1  UNL1        0.1131
     26 O         145.2671  142.5206  157.8736 O.2     1  UNL1       -0.1379
     27 O         142.4739  141.9893  156.9168 O.2     1  UNL1       -0.1379
     28 C         145.1794  140.4205  156.1023 C.3     1  UNL1        0.1163
     29 N         144.2173  140.8108  157.1849 N.3     1  UNL1       -0.1402
     30 C         143.6019  139.7570  158.0571 C.3     1  UNL1        0.1129
     31 C         143.6091  139.7393  159.5570 C.3     1  UNL1        0.0524
     32 C         142.8830  138.5072  160.0095 C.3     1  UNL1        0.1438
     33 O         142.4271  137.7634  158.7892 O.3     1  UNL1       -0.3522
     34 C         142.8714  138.5358  157.5826 C.3     1  UNL1        0.1598
@<TRIPOS>BOND
     1    28    29    1
     2    30    29    1
     3    30    31    1
     4    31    32    1
     5    32    33    1
     6    33    34    1
     7    29    25    1
     8    25    26    2
     9    25    27    2
    10    25    23    1
    11    23     1    1
    12     1     2   ar
    13     2     3   ar
    14     3     4   ar
    15     4     5   ar
    16     5     6   ar
    17     6     7   ar
    18     7     8   ar
    19     8     9   ar
    20     9    10   ar
    21    10    17    1
    22    17    18   ar
    23    18    19   ar
    24    19    20   ar
    25    20    21    1
    26    20    22   ar
    27    10    11   ar
    28    11    12   ar
    29    12    13   ar
    30    13    14    2
    31    13    15   ar
    32    15    16   ar
    33    34    30    1
    34    16     1   ar
    35    15     4   ar
    36    12     7   ar
    37    22    17   ar
    38    23    24    1
@<TRIPOS>MOLECULE
*****
 34 38 0 0 0
SMALL
GASTEIGER

@<TRIPOS>ATOM
      1 C         142.2440  144.1813  160.1256 C.ar    1  UNL1        0.0659
      2 C         143.0961  143.2721  159.2907 C.ar    1  UNL1        0.0159
      3 C         143.6589  142.0156  159.8861 C.ar    1  UNL1        0.0014
      4 C         143.3695  141.6683  161.3163 C.ar    1  UNL1        0.0032
      5 C         144.0243  140.3775  161.7101 C.ar    1  UNL1        0.0016
      6 C         143.9886  139.6771  163.0361 C.ar    1  UNL1        0.0192
      7 C         143.2893  140.0945  164.2957 C.ar    1  UNL1        0.0844
      8 N         143.5104  139.1032  165.3996 N.ar    1  UNL1       -0.2437
      9 C         142.8953  139.3328  166.7481 C.ar    1  UNL1        0.0989
     10 C         142.0590  140.5538  166.9930 C.ar    1  UNL1        0.0223
     11 C         141.8379  141.5451  165.8892 C.ar    1  UNL1        0.0063
     12 C         142.4530  141.3155  164.5405 C.ar    1  UNL1        0.0566
     13 C         142.1095  142.4206  163.5861 C.ar    1  UNL1        0.1970
     14 O         141.2436  143.5130  164.1399 O.2     1  UNL1       -0.2865
     15 C         142.5174  142.5775  162.1512 C.ar    1  UNL1        0.0403
     16 C         141.9546  143.8340  161.5559 C.ar    1  UNL1        0.0191
     17 C         141.4438  140.7835  168.3417 C.ar    1  UNL1        0.0411
     18 C         141.4397  139.8133  169.4857 C.ar    1  UNL1        0.1217
     19 N         140.7180  140.4539  170.6340 N.ar    1  UNL1       -0.1676
     20 N         140.2761  141.8200  170.1998 N.ar    1  UNL1       -0.2473
     21 C         139.5187  142.8089  171.0356 C.3     1  UNL1        0.1538
     22 C         140.7247  142.0237  168.7830 C.ar    1  UNL1        0.0967
     23 N         141.6811  145.4379  159.5303 N.pl3   1  UNL1       -0.2052
     24 H         141.7970  146.2978  159.9955 H       1  UNL1        0.1748
     25 S         140.9419  145.3842  158.2262 S.O2    1  UNL1        0.1131
     26 O         142.1137  146.0167  157.5359 O.2     1  UNL1       -0.1379
     27 O         139.7700  144.7517  158.9166 O.2     1  UNL1       -0.1379
     28 C         139.8527  144.0056  156.3123 C.3     1  UNL1        0.1163
     29 N         140.2026  145.3306  156.9221 N.3     1  UNL1       -0.1402
     30 C         139.8133  146.6020  156.2279 C.3     1  UNL1        0.1129
     31 C         140.2290  147.0156  154.8473 C.3     1  UNL1        0.0524
     32 C         139.6125  148.3522  154.5585 C.3     1  UNL1        0.1438
     33 O         138.8157  148.7646  155.7607 O.3     1  UNL1       -0.3522
     34 C         138.9398  147.6829  156.7924 C.3     1  UNL1        0.1598
@<TRIPOS>BOND
     1    28    29    1
     2    30    29    1
     3    30    31    1
     4    31    32    1
     5    32    33    1
     6    33    34    1
     7    29    25    1
     8    25    26    2
     9    25    27    2
    10    25    23    1
    11    23     1    1
    12     1     2   ar
    13     2     3   ar
    14     3     4   ar
    15     4     5   ar
    16     5     6   ar
    17     6     7   ar
    18     7     8   ar
    19     8     9   ar
    20     9    10   ar
    21    10    17    1
    22    17    18   ar
    23    18    19   ar
    24    19    20   ar
    25    20    21    1
    26    20    22   ar
    27    10    11   ar
    28    11    12   ar
    29    12    13   ar
    30    13    14    2
    31    13    15   ar
    32    15    16   ar
    33    34    30    1
    34    16     1   ar
    35    15     4   ar
    36    12     7   ar
    37    22    17   ar
    38    23    24    1
@<TRIPOS>MOLECULE
*****
 34 38 0 0 0
SMALL
GASTEIGER

@<TRIPOS>ATOM
      1 C         143.0097  139.4932  159.9869 C.ar    1  UNL1        0.0659
      2 C         141.9925  138.7252  159.1961 C.ar    1  UNL1        0.0159
      3 C         140.7278  138.2585  159.8538 C.ar    1  UNL1        0.0014
      4 C         140.4802  138.5598  161.3022 C.ar    1  UNL1        0.0032
      5 C         139.1633  138.0063  161.7598 C.ar    1  UNL1        0.0016
      6 C         138.5383  138.0841  163.1212 C.ar    1  UNL1        0.0192
      7 C         139.0760  138.7347  164.3612 C.ar    1  UNL1        0.0844
      8 N         138.1292  138.5821  165.5147 N.ar    1  UNL1       -0.2437
      9 C         138.4778  139.1629  166.8529 C.ar    1  UNL1        0.0989
     10 C         139.7732  139.8964  167.0378 C.ar    1  UNL1        0.0223
     11 C         140.7199  140.0490  165.8845 C.ar    1  UNL1        0.0063
     12 C         140.3713  139.4682  164.5461 C.ar    1  UNL1        0.0566
     13 C         141.4490  139.7322  163.5366 C.ar    1  UNL1        0.1970
     14 O         142.6349  140.5022  164.0370 O.2     1  UNL1       -0.2865
     15 C         141.4974  139.3279  162.0929 C.ar    1  UNL1        0.0403
     16 C         142.7621  139.7946  161.4353 C.ar    1  UNL1        0.0191
     17 C         140.1218  140.4773  168.3762 C.ar    1  UNL1        0.0411
     18 C         139.2890  140.3871  169.6205 C.ar    1  UNL1        0.1217
     19 N         140.0170  141.1044  170.7184 N.ar    1  UNL1       -0.1676
     20 N         141.2997  141.6378  170.1528 N.ar    1  UNL1       -0.2473
     21 C         142.3359  142.4213  170.9029 C.3     1  UNL1        0.1538
     22 C         141.3645  141.2502  168.7052 C.ar    1  UNL1        0.0967
     23 N         144.2745  139.9600  159.3293 N.pl3   1  UNL1       -0.2052
     24 H         145.1477  139.6750  159.6836 H       1  UNL1        0.1748
     25 S         144.2090  140.8609  158.1318 S.O2    1  UNL1        0.1131
     26 O         143.8488  142.0149  159.0197 O.2     1  UNL1       -0.1379
     27 O         144.5691  139.7069  157.2438 O.2     1  UNL1       -0.1379
     28 C         142.8457  142.4115  156.5547 C.3     1  UNL1        0.1163
     29 N         144.1433  141.7619  156.9343 N.3     1  UNL1       -0.1402
     30 C         145.3753  142.0133  156.1164 C.3     1  UNL1        0.1129
     31 C         146.7234  142.3998  156.6488 C.3     1  UNL1        0.0524
     32 C         147.6568  142.5477  155.4840 C.3     1  UNL1        0.1438
     33 O         146.8857  142.2525  154.2317 O.3     1  UNL1       -0.3522
     34 C         145.4757  141.9222  154.6226 C.3     1  UNL1        0.1598
@<TRIPOS>BOND
     1    28    29    1
     2    30    29    1
     3    30    31    1
     4    31    32    1
     5    32    33    1
     6    33    34    1
     7    29    25    1
     8    25    26    2
     9    25    27    2
    10    25    23    1
    11    23     1    1
    12     1     2   ar
    13     2     3   ar
    14     3     4   ar
    15     4     5   ar
    16     5     6   ar
    17     6     7   ar
    18     7     8   ar
    19     8     9   ar
    20     9    10   ar
    21    10    17    1
    22    17    18   ar
    23    18    19   ar
    24    19    20   ar
    25    20    21    1
    26    20    22   ar
    27    10    11   ar
    28    11    12   ar
    29    12    13   ar
    30    13    14    2
    31    13    15   ar
    32    15    16   ar
    33    34    30    1
    34    16     1   ar
    35    15     4   ar
    36    12     7   ar
    37    22    17   ar
    38    23    24    1
@<TRIPOS>MOLECULE
*****
 34 38 0 0 0
SMALL
GASTEIGER

@<TRIPOS>ATOM
      1 C         141.0815  140.9031  159.0295 C.ar    1  UNL1        0.0659
      2 C         140.4408  139.6907  158.4216 C.ar    1  UNL1        0.0159
      3 C         139.7302  138.7002  159.2957 C.ar    1  UNL1        0.0014
      4 C         139.6604  138.9221  160.7775 C.ar    1  UNL1        0.0032
      5 C         138.9086  137.8193  161.4619 C.ar    1  UNL1        0.0016
      6 C         138.6118  137.6564  162.9233 C.ar    1  UNL1        0.0192
      7 C         138.9936  138.5562  164.0610 C.ar    1  UNL1        0.0844
      8 N         138.4964  138.0231  165.3720 N.ar    1  UNL1       -0.2437
      9 C         138.7719  138.7749  166.6404 C.ar    1  UNL1        0.0989
     10 C         139.5447  140.0598  166.5978 C.ar    1  UNL1        0.0223
     11 C         140.0419  140.5929  165.2870 C.ar    1  UNL1        0.0063
     12 C         139.7664  139.8411  164.0185 C.ar    1  UNL1        0.0566
     13 C         140.3483  140.5436  162.8277 C.ar    1  UNL1        0.1970
     14 O         141.0732  141.8243  163.1177 O.2     1  UNL1       -0.2865
     15 C         140.3011  140.1346  161.3853 C.ar    1  UNL1        0.0403
     16 C         141.0116  141.1251  160.5113 C.ar    1  UNL1        0.0191
     17 C         139.8203  140.8117  167.8663 C.ar    1  UNL1        0.0411
     18 C         139.7567  140.2500  169.2557 C.ar    1  UNL1        0.1217
     19 N         140.1050  141.3484  170.2160 N.ar    1  UNL1       -0.1676
     20 N         140.3837  142.5889  169.4202 N.ar    1  UNL1       -0.2473
     21 C         140.7705  143.9264  169.9784 C.3     1  UNL1        0.1538
     22 C         140.2078  142.2572  167.9679 C.ar    1  UNL1        0.0967
     23 N         141.7921  141.8937  158.1554 N.pl3   1  UNL1       -0.2052
     24 H         142.3027  141.5827  157.3732 H       1  UNL1        0.1748
     25 S         141.7248  143.3581  158.4732 S.O2    1  UNL1        0.1131
     26 O         140.2650  143.3658  158.1284 O.2     1  UNL1       -0.1379
     27 O         143.1846  143.3504  158.8179 O.2     1  UNL1       -0.1379
     28 C         142.1581  145.8292  157.7980 C.3     1  UNL1        0.1163
     29 N         141.6574  144.8226  158.7909 N.3     1  UNL1       -0.1402
     30 C         141.0894  145.2803  160.1015 C.3     1  UNL1        0.1129
     31 C         141.5611  144.8597  161.4619 C.3     1  UNL1        0.0524
     32 C         140.7132  145.5584  162.4831 C.3     1  UNL1        0.1438
     33 O         139.7174  146.4109  161.7538 O.3     1  UNL1       -0.3522
     34 C         139.9500  146.2390  160.2819 C.3     1  UNL1        0.1598
@<TRIPOS>BOND
     1    28    29    1
     2    30    29    1
     3    30    31    1
     4    31    32    1
     5    32    33    1
     6    33    34    1
     7    29    25    1
     8    25    26    2
     9    25    27    2
    10    25    23    1
    11    23     1    1
    12     1     2   ar
    13     2     3   ar
    14     3     4   ar
    15     4     5   ar
    16     5     6   ar
    17     6     7   ar
    18     7     8   ar
    19     8     9   ar
    20     9    10   ar
    21    10    17    1
    22    17    18   ar
    23    18    19   ar
    24    19    20   ar
    25    20    21    1
    26    20    22   ar
    27    10    11   ar
    28    11    12   ar
    29    12    13   ar
    30    13    14    2
    31    13    15   ar
    32    15    16   ar
    33    34    30    1
    34    16     1   ar
    35    15     4   ar
    36    12     7   ar
    37    22    17   ar
    38    23    24    1
