@<TRIPOS>MOLECULE
*****
 31 34 0 0 0
SMALL
GASTEIGER

@<TRIPOS>ATOM
      1 C         141.6777  140.2995  163.5275 C.2     1  UNL1        0.2525
      2 O         142.6274  140.0658  164.6648 O.2     1  UNL1       -0.2698
      3 N         141.8602  139.5617  162.2343 N.am    1  UNL1       -0.2660
      4 C         140.9951  139.6910  161.0158 C.3     1  UNL1        0.1236
      5 C         141.5400  138.7742  159.9610 C.ar    1  UNL1        0.0338
      6 C         141.3422  138.2875  158.5560 C.ar    1  UNL1        0.0991
      7 N         142.4218  137.2908  158.2543 N.ar    1  UNL1       -0.2265
      8 N         143.2870  137.1616  159.4729 N.ar    1  UNL1       -0.1679
      9 C         142.7420  138.0783  160.5277 C.ar    1  UNL1        0.0981
     10 C         142.9399  138.5650  161.9327 C.3     1  UNL1        0.1414
     11 C         142.6043  136.5530  156.9612 C.ar    1  UNL1        0.1102
     12 C         142.2980  137.2333  155.6599 C.ar    1  UNL1        0.0214
     13 C         142.4805  136.4955  154.3667 C.ar    1  UNL1        0.0017
     14 C         142.9693  135.0774  154.3748 C.ar    1  UNL1        0.0024
     15 C         143.2756  134.3971  155.6762 C.ar    1  UNL1        0.0312
     16 C         143.0931  135.1349  156.9693 C.ar    1  UNL1        0.1577
     17 F         143.3994  134.4547  158.2706 F       1  UNL1       -0.2026
     18 C         139.3376  140.8924  164.4879 C.ar    1  UNL1        0.1427
     19 C         138.2055  141.8640  164.6438 C.ar    1  UNL1        0.0384
     20 C         138.2814  143.2144  163.9951 C.ar    1  UNL1        0.0215
     21 C         139.4893  143.5931  163.1905 C.ar    1  UNL1        0.1061
     22 C         140.6215  142.6214  163.0347 C.ar    1  UNL1        0.0259
     23 C         140.5456  141.2711  163.6834 C.ar    1  UNL1        0.0887
     24 S         139.5652  144.9435  162.5418 S.O2    1  UNL1        0.0105
     25 C         139.6410  146.2938  161.8931 C.3     1  UNL1        0.1816
     26 O         138.0686  144.9828  162.4486 O.2     1  UNL1       -0.1686
     27 O         141.0618  144.9041  162.6350 O.2     1  UNL1       -0.1686
     28 O         139.2617  139.5421  165.1367 O.3     1  UNL1       -0.4790
     29 C         137.7124  138.5970  166.9958 C.3     1  UNL1        0.0472
     30 C         138.8935  139.4260  166.5861 C.3     1  UNL1        0.1661
     31 C         139.7064  140.1389  167.6258 C.3     1  UNL1        0.0472
@<TRIPOS>BOND
     1    29    30    1
     2    30    31    1
     3    30    28    1
     4    28    18    1
     5    18    19   ar
     6    19    20   ar
     7    20    21   ar
     8    21    24    1
     9    24    25    1
    10    24    26    2
    11    24    27    2
    12    21    22   ar
    13    22    23   ar
    14    23     1    1
    15     1     2    2
    16     1     3   am
    17     3     4    1
    18     4     5    1
    19     5     6   ar
    20     6     7   ar
    21     7    11    1
    22    11    12   ar
    23    12    13   ar
    24    13    14   ar
    25    14    15   ar
    26    15    16   ar
    27    16    17    1
    28     7     8   ar
    29     8     9   ar
    30     9    10    1
    31    23    18   ar
    32    10     3    1
    33     9     5   ar
    34    16    11   ar
@<TRIPOS>MOLECULE
*****
 31 34 0 0 0
SMALL
GASTEIGER

@<TRIPOS>ATOM
      1 C         144.4929  141.7364  163.8835 C.2     1  UNL1        0.2525
      2 O         145.9903  141.8233  163.8695 O.2     1  UNL1       -0.2698
      3 N         143.6995  142.2764  162.7308 N.am    1  UNL1       -0.2660
      4 C         142.2048  142.2604  162.6048 C.3     1  UNL1        0.1236
      5 C         141.8430  142.9014  161.2979 C.ar    1  UNL1        0.0338
      6 C         140.6956  143.2876  160.4122 C.ar    1  UNL1        0.0991
      7 N         141.2574  143.9385  159.1831 N.ar    1  UNL1       -0.2265
      8 N         142.7521  143.9545  159.3091 N.ar    1  UNL1       -0.1679
      9 C         143.1140  143.3135  160.6161 C.ar    1  UNL1        0.0981
     10 C         144.2613  142.9273  161.5017 C.3     1  UNL1        0.1414
     11 C         140.4640  144.4785  158.0304 C.ar    1  UNL1        0.1102
     12 C         140.5187  145.9411  157.7020 C.ar    1  UNL1        0.0214
     13 C         139.7253  146.4812  156.5492 C.ar    1  UNL1        0.0017
     14 C         138.8771  145.5587  155.7249 C.ar    1  UNL1        0.0024
     15 C         138.8224  144.0960  156.0533 C.ar    1  UNL1        0.0312
     16 C         139.6158  143.5560  157.2060 C.ar    1  UNL1        0.1577
     17 F         139.5611  142.0934  157.5344 F       1  UNL1       -0.2026
     18 C         143.5895  139.6234  165.0958 C.ar    1  UNL1        0.1427
     19 C         142.8855  138.9965  166.2626 C.ar    1  UNL1        0.0384
     20 C         142.3811  139.8556  167.3840 C.ar    1  UNL1        0.0215
     21 C         142.5806  141.3416  167.3386 C.ar    1  UNL1        0.1061
     22 C         143.2846  141.9684  166.1717 C.ar    1  UNL1        0.0259
     23 C         143.7890  141.1094  165.0503 C.ar    1  UNL1        0.0887
     24 S         142.0762  142.2006  168.4600 S.O2    1  UNL1        0.0105
     25 C         141.5717  143.0596  169.5815 C.3     1  UNL1        0.1816
     26 O         140.6707  141.7760  168.1531 O.2     1  UNL1       -0.1686
     27 O         143.4818  142.6252  168.7670 O.2     1  UNL1       -0.1686
     28 O         144.0939  138.7644  163.9744 O.3     1  UNL1       -0.4790
     29 C         141.8787  137.8903  162.9356 C.3     1  UNL1        0.0472
     30 C         143.2314  138.5176  162.7722 C.3     1  UNL1        0.1661
     31 C         143.7217  138.8982  161.4066 C.3     1  UNL1        0.0472
@<TRIPOS>BOND
     1    29    30    1
     2    30    31    1
     3    30    28    1
     4    28    18    1
     5    18    19   ar
     6    19    20   ar
     7    20    21   ar
     8    21    24    1
     9    24    25    1
    10    24    26    2
    11    24    27    2
    12    21    22   ar
    13    22    23   ar
    14    23     1    1
    15     1     2    2
    16     1     3   am
    17     3     4    1
    18     4     5    1
    19     5     6   ar
    20     6     7   ar
    21     7    11    1
    22    11    12   ar
    23    12    13   ar
    24    13    14   ar
    25    14    15   ar
    26    15    16   ar
    27    16    17    1
    28     7     8   ar
    29     8     9   ar
    30     9    10    1
    31    23    18   ar
    32    10     3    1
    33     9     5   ar
    34    16    11   ar
@<TRIPOS>MOLECULE
*****
 31 34 0 0 0
SMALL
GASTEIGER

@<TRIPOS>ATOM
      1 C         138.5473  141.2514  162.3896 C.2     1  UNL1        0.2525
      2 O         137.0824  141.5741  162.3830 O.2     1  UNL1       -0.2698
      3 N         139.1403  140.4348  161.2798 N.am    1  UNL1       -0.2660
      4 C         140.5803  140.0348  161.1520 C.3     1  UNL1        0.1236
      5 C         140.7274  139.2277  159.8962 C.ar    1  UNL1        0.0338
      6 C         141.7083  138.4816  159.0411 C.ar    1  UNL1        0.0991
      7 N         140.9655  137.9218  157.8643 N.ar    1  UNL1       -0.2265
      8 N         139.5254  138.3219  157.9921 N.ar    1  UNL1       -0.1679
      9 C         139.3783  139.1290  159.2479 C.ar    1  UNL1        0.0981
     10 C         138.3975  139.8751  160.1030 C.3     1  UNL1        0.1414
     11 C         141.5585  137.1053  156.7545 C.ar    1  UNL1        0.1102
     12 C         143.0431  136.9036  156.6825 C.ar    1  UNL1        0.0214
     13 C         143.6362  136.0871  155.5727 C.ar    1  UNL1        0.0017
     14 C         142.7446  135.4723  154.5350 C.ar    1  UNL1        0.0024
     15 C         141.2599  135.6740  154.6070 C.ar    1  UNL1        0.0312
     16 C         140.6669  136.4904  155.7167 C.ar    1  UNL1        0.1577
     17 F         139.1823  136.6921  155.7887 F       1  UNL1       -0.2026
     18 C         139.1693  141.2860  164.9119 C.ar    1  UNL1        0.1427
     19 C         140.0411  141.7798  166.0282 C.ar    1  UNL1        0.0384
     20 C         141.1627  142.7327  165.7385 C.ar    1  UNL1        0.0215
     21 C         141.4126  143.1919  164.3325 C.ar    1  UNL1        0.1061
     22 C         140.5407  142.6980  163.2162 C.ar    1  UNL1        0.0259
     23 C         139.4191  141.7451  163.5059 C.ar    1  UNL1        0.0887
     24 S         142.5342  144.1448  164.0429 S.O2    1  UNL1        0.0105
     25 C         143.6558  145.0977  163.7532 C.3     1  UNL1        0.1816
     26 O         143.5261  143.0367  164.2385 O.2     1  UNL1       -0.1686
     27 O         141.5421  145.2529  163.8473 O.2     1  UNL1       -0.1686
     28 O         138.0477  140.3331  165.2016 O.3     1  UNL1       -0.4790
     29 C         137.7006  138.4654  166.9740 C.3     1  UNL1        0.0472
     30 C         138.3474  138.9549  165.7123 C.3     1  UNL1        0.1661
     31 C         139.2941  138.0663  164.9612 C.3     1  UNL1        0.0472
@<TRIPOS>BOND
     1    29    30    1
     2    30    31    1
     3    30    28    1
     4    28    18    1
     5    18    19   ar
     6    19    20   ar
     7    20    21   ar
     8    21    24    1
     9    24    25    1
    10    24    26    2
    11    24    27    2
    12    21    22   ar
    13    22    23   ar
    14    23     1    1
    15     1     2    2
    16     1     3   am
    17     3     4    1
    18     4     5    1
    19     5     6   ar
    20     6     7   ar
    21     7    11    1
    22    11    12   ar
    23    12    13   ar
    24    13    14   ar
    25    14    15   ar
    26    15    16   ar
    27    16    17    1
    28     7     8   ar
    29     8     9   ar
    30     9    10    1
    31    23    18   ar
    32    10     3    1
    33     9     5   ar
    34    16    11   ar
@<TRIPOS>MOLECULE
*****
 31 34 0 0 0
SMALL
GASTEIGER

@<TRIPOS>ATOM
      1 C         138.9373  139.6785  165.6472 C.2     1  UNL1        0.2525
      2 O         137.6667  139.0817  166.1758 O.2     1  UNL1       -0.2698
      3 N         139.3432  139.4381  164.2234 N.am    1  UNL1       -0.2660
      4 C         140.5792  139.9666  163.5577 C.3     1  UNL1        0.1236
      5 C         140.5843  139.4820  162.1381 C.ar    1  UNL1        0.0338
      6 C         141.3514  139.5092  160.8494 C.ar    1  UNL1        0.0991
      7 N         140.5927  138.6980  159.8412 N.ar    1  UNL1       -0.2265
      8 N         139.3567  138.1695  160.5069 N.ar    1  UNL1       -0.1679
      9 C         139.3516  138.6541  161.9265 C.ar    1  UNL1        0.0981
     10 C         138.5845  138.6269  163.2152 C.3     1  UNL1        0.1414
     11 C         140.9986  138.4576  158.4174 C.ar    1  UNL1        0.1102
     12 C         140.1478  138.9776  157.2968 C.ar    1  UNL1        0.0214
     13 C         140.5537  138.7371  155.8729 C.ar    1  UNL1        0.0017
     14 C         141.8106  137.9767  155.5696 C.ar    1  UNL1        0.0024
     15 C         142.6615  137.4567  156.6902 C.ar    1  UNL1        0.0312
     16 C         142.2556  137.6971  158.1140 C.ar    1  UNL1        0.1577
     17 F         143.1064  137.1772  159.2345 F       1  UNL1       -0.2026
     18 C         139.8628  142.0022  166.3502 C.ar    1  UNL1        0.1427
     19 C         140.7274  142.8393  167.2455 C.ar    1  UNL1        0.0384
     20 C         141.5311  142.1902  168.3331 C.ar    1  UNL1        0.0215
     21 C         141.4701  140.7038  168.5254 C.ar    1  UNL1        0.1061
     22 C         140.6055  139.8666  167.6300 C.ar    1  UNL1        0.0259
     23 C         139.8018  140.5158  166.5425 C.ar    1  UNL1        0.0887
     24 S         142.2738  140.0547  169.6129 S.O2    1  UNL1        0.0105
     25 C         143.0774  139.4055  170.7005 C.3     1  UNL1        0.1816
     26 O         141.6119  140.9376  170.6290 O.2     1  UNL1       -0.1686
     27 O         142.9356  139.1717  168.5968 O.2     1  UNL1       -0.1686
     28 O         139.0592  142.6513  165.2627 O.3     1  UNL1       -0.4790
     29 C         140.1461  144.6645  164.0316 C.3     1  UNL1        0.0472
     30 C         139.1652  144.1297  165.0324 C.3     1  UNL1        0.1661
     31 C         138.2901  145.0733  165.8030 C.3     1  UNL1        0.0472
@<TRIPOS>BOND
     1    29    30    1
     2    30    31    1
     3    30    28    1
     4    28    18    1
     5    18    19   ar
     6    19    20   ar
     7    20    21   ar
     8    21    24    1
     9    24    25    1
    10    24    26    2
    11    24    27    2
    12    21    22   ar
    13    22    23   ar
    14    23     1    1
    15     1     2    2
    16     1     3   am
    17     3     4    1
    18     4     5    1
    19     5     6   ar
    20     6     7   ar
    21     7    11    1
    22    11    12   ar
    23    12    13   ar
    24    13    14   ar
    25    14    15   ar
    26    15    16   ar
    27    16    17    1
    28     7     8   ar
    29     8     9   ar
    30     9    10    1
    31    23    18   ar
    32    10     3    1
    33     9     5   ar
    34    16    11   ar
@<TRIPOS>MOLECULE
*****
 31 34 0 0 0
SMALL
GASTEIGER

@<TRIPOS>ATOM
      1 C         141.8524  139.9101  161.6193 C.2     1  UNL1        0.2525
      2 O         143.0409  139.8582  162.5328 O.2     1  UNL1       -0.2698
      3 N         141.8516  139.1207  160.3439 N.am    1  UNL1       -0.2660
      4 C         140.7411  139.0740  159.3366 C.3     1  UNL1        0.1236
      5 C         141.1645  138.1638  158.2220 C.ar    1  UNL1        0.0338
      6 C         140.7398  137.5723  156.9105 C.ar    1  UNL1        0.0991
      7 N         141.8494  136.6910  156.4184 N.ar    1  UNL1       -0.2265
      8 N         142.9599  136.7378  157.4258 N.ar    1  UNL1       -0.1679
      9 C         142.5365  137.6480  158.5404 C.ar    1  UNL1        0.0981
     10 C         142.9612  138.2394  159.8519 C.3     1  UNL1        0.1414
     11 C         141.8487  135.9016  155.1431 C.ar    1  UNL1        0.1102
     12 C         141.6878  136.6030  153.8269 C.ar    1  UNL1        0.0214
     13 C         141.6871  135.8135  152.5514 C.ar    1  UNL1        0.0017
     14 C         141.8472  134.3227  152.5921 C.ar    1  UNL1        0.0024
     15 C         142.0081  133.6212  153.9083 C.ar    1  UNL1        0.0312
     16 C         142.0089  134.4107  155.1837 C.ar    1  UNL1        0.1577
     17 F         142.1697  133.7093  156.4998 F       1  UNL1       -0.2026
     18 C         139.4149  140.1023  162.4982 C.ar    1  UNL1        0.1427
     19 C         138.2272  140.9438  162.8601 C.ar    1  UNL1        0.0384
     20 C         138.2888  142.4345  162.7052 C.ar    1  UNL1        0.0215
     21 C         139.5383  143.0838  162.1882 C.ar    1  UNL1        0.1061
     22 C         140.7261  142.2422  161.8263 C.ar    1  UNL1        0.0259
     23 C         140.6645  140.7516  161.9813 C.ar    1  UNL1        0.0887
     24 S         139.5999  144.5745  162.0332 S.O2    1  UNL1        0.0105
     25 C         139.6616  146.0652  161.8783 C.3     1  UNL1        0.1816
     26 O         138.1593  144.6762  162.4383 O.2     1  UNL1       -0.1686
     27 O         141.0407  144.4727  161.6282 O.2     1  UNL1       -0.1686
     28 O         139.3533  138.6117  162.6532 O.3     1  UNL1       -0.4790
     29 C         141.0703  137.2641  164.0625 C.3     1  UNL1        0.0472
     30 C         139.7543  137.9753  163.9510 C.3     1  UNL1        0.1661
     31 C         138.8393  138.0502  165.1372 C.3     1  UNL1        0.0472
@<TRIPOS>BOND
     1    29    30    1
     2    30    31    1
     3    30    28    1
     4    28    18    1
     5    18    19   ar
     6    19    20   ar
     7    20    21   ar
     8    21    24    1
     9    24    25    1
    10    24    26    2
    11    24    27    2
    12    21    22   ar
    13    22    23   ar
    14    23     1    1
    15     1     2    2
    16     1     3   am
    17     3     4    1
    18     4     5    1
    19     5     6   ar
    20     6     7   ar
    21     7    11    1
    22    11    12   ar
    23    12    13   ar
    24    13    14   ar
    25    14    15   ar
    26    15    16   ar
    27    16    17    1
    28     7     8   ar
    29     8     9   ar
    30     9    10    1
    31    23    18   ar
    32    10     3    1
    33     9     5   ar
    34    16    11   ar
@<TRIPOS>MOLECULE
*****
 31 34 0 0 0
SMALL
GASTEIGER

@<TRIPOS>ATOM
      1 C         139.7780  143.6715  164.9743 C.2     1  UNL1        0.2525
      2 O         139.1249  144.6716  165.8816 O.2     1  UNL1       -0.2698
      3 N         139.9832  143.9960  163.5243 N.am    1  UNL1       -0.2660
      4 C         140.6181  143.1009  162.5018 C.3     1  UNL1        0.1236
      5 C         140.6168  143.8244  161.1878 C.ar    1  UNL1        0.0338
      6 C         141.0084  143.7183  159.7437 C.ar    1  UNL1        0.0991
      7 N         140.6147  144.9950  159.0616 N.ar    1  UNL1       -0.2265
      8 N         139.9798  145.8901  160.0843 N.ar    1  UNL1       -0.1679
      9 C         139.9811  145.1666  161.3982 C.ar    1  UNL1        0.0981
     10 C         139.5895  145.2727  162.8423 C.3     1  UNL1        0.1414
     11 C         140.8199  145.3195  157.6117 C.ar    1  UNL1        0.1102
     12 C         139.8113  146.1546  156.8800 C.ar    1  UNL1        0.0214
     13 C         140.0164  146.4792  155.4299 C.ar    1  UNL1        0.0017
     14 C         141.2302  145.9687  154.7116 C.ar    1  UNL1        0.0024
     15 C         142.2389  145.1335  155.4433 C.ar    1  UNL1        0.0312
     16 C         142.0337  144.8090  156.8932 C.ar    1  UNL1        0.1577
     17 F         143.0423  143.9739  157.6249 F       1  UNL1       -0.2026
     18 C         141.6649  142.1342  165.8837 C.ar    1  UNL1        0.1427
     19 C         142.1127  140.8095  166.4264 C.ar    1  UNL1        0.0384
     20 C         141.1217  139.6973  166.6026 C.ar    1  UNL1        0.0215
     21 C         139.6828  139.9099  166.2360 C.ar    1  UNL1        0.1061
     22 C         139.2350  141.2346  165.6932 C.ar    1  UNL1        0.0259
     23 C         140.2259  142.3468  165.5171 C.ar    1  UNL1        0.0887
     24 S         138.6918  138.7977  166.4122 S.O2    1  UNL1        0.0105
     25 C         137.7008  137.6856  166.5883 C.3     1  UNL1        0.1816
     26 O         138.5633  139.1426  167.8663 O.2     1  UNL1       -0.1686
     27 O         138.8204  138.4529  164.9580 O.2     1  UNL1       -0.1686
     28 O         142.6559  143.2463  165.7075 O.3     1  UNL1       -0.4790
     29 C         143.7338  144.4146  163.6525 C.3     1  UNL1        0.0472
     30 C         143.6139  143.2215  164.5536 C.3     1  UNL1        0.1661
     31 C         144.4519  142.0034  164.3008 C.3     1  UNL1        0.0472
@<TRIPOS>BOND
     1    29    30    1
     2    30    31    1
     3    30    28    1
     4    28    18    1
     5    18    19   ar
     6    19    20   ar
     7    20    21   ar
     8    21    24    1
     9    24    25    1
    10    24    26    2
    11    24    27    2
    12    21    22   ar
    13    22    23   ar
    14    23     1    1
    15     1     2    2
    16     1     3   am
    17     3     4    1
    18     4     5    1
    19     5     6   ar
    20     6     7   ar
    21     7    11    1
    22    11    12   ar
    23    12    13   ar
    24    13    14   ar
    25    14    15   ar
    26    15    16   ar
    27    16    17    1
    28     7     8   ar
    29     8     9   ar
    30     9    10    1
    31    23    18   ar
    32    10     3    1
    33     9     5   ar
    34    16    11   ar
@<TRIPOS>MOLECULE
*****
 31 34 0 0 0
SMALL
GASTEIGER

@<TRIPOS>ATOM
      1 C         143.9162  140.6427  163.9212 C.2     1  UNL1        0.2525
      2 O         145.3970  140.7611  164.1292 O.2     1  UNL1       -0.2698
      3 N         143.3824  140.0407  162.6552 N.am    1  UNL1       -0.2660
      4 C         141.9347  139.8574  162.3081 C.3     1  UNL1        0.1236
      5 C         141.8603  139.2197  160.9525 C.ar    1  UNL1        0.0338
      6 C         140.9195  138.7123  159.9001 C.ar    1  UNL1        0.0991
      7 N         141.7397  138.1879  158.7589 N.ar    1  UNL1       -0.2265
      8 N         143.1875  138.3712  159.1061 N.ar    1  UNL1       -0.1679
      9 C         143.2620  139.0089  160.4617 C.ar    1  UNL1        0.0981
     10 C         144.2027  139.5163  161.5141 C.3     1  UNL1        0.1414
     11 C         141.2060  137.5859  157.4930 C.ar    1  UNL1        0.1102
     12 C         139.8991  138.0600  156.9299 C.ar    1  UNL1        0.0214
     13 C         139.3653  137.4580  155.6639 C.ar    1  UNL1        0.0017
     14 C         140.1385  136.3820  154.9610 C.ar    1  UNL1        0.0024
     15 C         141.4456  135.9079  155.5241 C.ar    1  UNL1        0.0312
     16 C         141.9793  136.5098  156.7900 C.ar    1  UNL1        0.1577
     17 F         143.2863  136.0358  157.3530 F       1  UNL1       -0.2026
     18 C         142.1550  142.3647  164.7478 C.ar    1  UNL1        0.1427
     19 C         141.2081  142.8482  165.8058 C.ar    1  UNL1        0.0384
     20 C         141.0752  142.0934  167.0952 C.ar    1  UNL1        0.0215
     21 C         141.8893  140.8549  167.3267 C.ar    1  UNL1        0.1061
     22 C         142.8363  140.3714  166.2686 C.ar    1  UNL1        0.0259
     23 C         142.9692  141.1263  164.9792 C.ar    1  UNL1        0.0887
     24 S         141.7564  140.1001  168.6161 S.O2    1  UNL1        0.0105
     25 C         141.6235  139.3453  169.9055 C.3     1  UNL1        0.1816
     26 O         143.0294  139.3652  168.3170 O.2     1  UNL1       -0.1686
     27 O         140.4834  140.8351  168.9151 O.2     1  UNL1       -0.1686
     28 O         142.2879  143.1195  163.4584 O.3     1  UNL1       -0.4790
     29 C         143.6553  145.2308  164.1085 C.3     1  UNL1        0.0472
     30 C         143.4631  144.0251  163.2372 C.3     1  UNL1        0.1661
     31 C         144.4459  143.7249  162.1446 C.3     1  UNL1        0.0472
@<TRIPOS>BOND
     1    29    30    1
     2    30    31    1
     3    30    28    1
     4    28    18    1
     5    18    19   ar
     6    19    20   ar
     7    20    21   ar
     8    21    24    1
     9    24    25    1
    10    24    26    2
    11    24    27    2
    12    21    22   ar
    13    22    23   ar
    14    23     1    1
    15     1     2    2
    16     1     3   am
    17     3     4    1
    18     4     5    1
    19     5     6   ar
    20     6     7   ar
    21     7    11    1
    22    11    12   ar
    23    12    13   ar
    24    13    14   ar
    25    14    15   ar
    26    15    16   ar
    27    16    17    1
    28     7     8   ar
    29     8     9   ar
    30     9    10    1
    31    23    18   ar
    32    10     3    1
    33     9     5   ar
    34    16    11   ar
@<TRIPOS>MOLECULE
*****
 31 34 0 0 0
SMALL
GASTEIGER

@<TRIPOS>ATOM
      1 C         142.0449  139.4568  164.5400 C.2     1  UNL1        0.2525
      2 O         142.6032  138.0809  164.3273 O.2     1  UNL1       -0.2698
      3 N         141.9199  140.4027  163.3825 N.am    1  UNL1       -0.2660
      4 C         141.3833  141.8022  163.4415 C.3     1  UNL1        0.1236
      5 C         141.4413  142.3795  162.0583 C.ar    1  UNL1        0.0338
      6 C         141.1455  143.6012  161.2399 C.ar    1  UNL1        0.0991
      7 N         141.5352  143.3137  159.8202 N.ar    1  UNL1       -0.2265
      8 N         142.0718  141.9142  159.7612 N.ar    1  UNL1       -0.1679
      9 C         142.0138  141.3369  161.1444 C.ar    1  UNL1        0.0981
     10 C         142.3096  140.1151  161.9629 C.3     1  UNL1        0.1414
     11 C         141.4102  144.2595  158.6628 C.ar    1  UNL1        0.1102
     12 C         140.2428  145.1981  158.5838 C.ar    1  UNL1        0.0214
     13 C         140.1177  146.1440  157.4264 C.ar    1  UNL1        0.0017
     14 C         141.1601  146.1513  156.3478 C.ar    1  UNL1        0.0024
     15 C         142.3276  145.2126  156.4267 C.ar    1  UNL1        0.0312
     16 C         142.4526  144.2668  157.5841 C.ar    1  UNL1        0.1577
     17 F         143.6200  143.3282  157.6630 F       1  UNL1       -0.2026
     18 C         140.2184  139.5940  166.3826 C.ar    1  UNL1        0.1427
     19 C         139.7852  140.0240  167.7528 C.ar    1  UNL1        0.0384
     20 C         140.7452  140.7469  168.6505 C.ar    1  UNL1        0.0215
     21 C         142.1384  141.0397  168.1781 C.ar    1  UNL1        0.1061
     22 C         142.5716  140.6097  166.8079 C.ar    1  UNL1        0.0259
     23 C         141.6117  139.8868  165.9101 C.ar    1  UNL1        0.0887
     24 S         143.0984  141.7626  169.0759 S.O2    1  UNL1        0.0105
     25 C         144.0583  142.4854  169.9736 C.3     1  UNL1        0.1816
     26 O         142.7016  140.8729  170.2165 O.2     1  UNL1       -0.1686
     27 O         143.4952  142.6522  167.9352 O.2     1  UNL1       -0.1686
     28 O         139.2585  138.8712  165.4849 O.3     1  UNL1       -0.4790
     29 C         137.9751  140.9707  164.6512 C.3     1  UNL1        0.0472
     30 C         138.5548  139.6126  164.3872 C.3     1  UNL1        0.1661
     31 C         138.4308  138.9960  163.0254 C.3     1  UNL1        0.0472
@<TRIPOS>BOND
     1    29    30    1
     2    30    31    1
     3    30    28    1
     4    28    18    1
     5    18    19   ar
     6    19    20   ar
     7    20    21   ar
     8    21    24    1
     9    24    25    1
    10    24    26    2
    11    24    27    2
    12    21    22   ar
    13    22    23   ar
    14    23     1    1
    15     1     2    2
    16     1     3   am
    17     3     4    1
    18     4     5    1
    19     5     6   ar
    20     6     7   ar
    21     7    11    1
    22    11    12   ar
    23    12    13   ar
    24    13    14   ar
    25    14    15   ar
    26    15    16   ar
    27    16    17    1
    28     7     8   ar
    29     8     9   ar
    30     9    10    1
    31    23    18   ar
    32    10     3    1
    33     9     5   ar
    34    16    11   ar
@<TRIPOS>MOLECULE
*****
 31 34 0 0 0
SMALL
GASTEIGER

@<TRIPOS>ATOM
      1 C         139.7767  144.5982  161.4033 C.2     1  UNL1        0.2525
      2 O         139.2544  145.9894  161.1989 O.2     1  UNL1       -0.2698
      3 N         139.9221  144.0480  162.7912 N.am    1  UNL1       -0.2660
      4 C         140.4275  142.6820  163.1497 C.3     1  UNL1        0.1236
      5 C         140.4053  142.5571  164.6443 C.ar    1  UNL1        0.0338
      6 C         140.7040  141.6356  165.7896 C.ar    1  UNL1        0.0991
      7 N         140.3694  142.3549  167.0627 N.ar    1  UNL1       -0.2265
      8 N         139.8640  143.7210  166.7041 N.ar    1  UNL1       -0.1679
      9 C         139.8862  143.8459  165.2095 C.ar    1  UNL1        0.0981
     10 C         139.5875  144.7674  164.0642 C.3     1  UNL1        0.1414
     11 C         140.5148  141.8048  168.4505 C.ar    1  UNL1        0.1102
     12 C         141.3958  142.5012  169.4449 C.ar    1  UNL1        0.0214
     13 C         141.5412  141.9511  170.8328 C.ar    1  UNL1        0.0017
     14 C         140.8055  140.7045  171.2263 C.ar    1  UNL1        0.0024
     15 C         139.9244  140.0081  170.2319 C.ar    1  UNL1        0.0312
     16 C         139.7790  140.5582  168.8441 C.ar    1  UNL1        0.1577
     17 F         138.8980  139.8618  167.8497 F       1  UNL1       -0.2026
     18 C         141.5888  143.6615  159.7942 C.ar    1  UNL1        0.1427
     19 C         141.9656  142.8204  158.6108 C.ar    1  UNL1        0.0384
     20 C         140.9074  142.0751  157.8529 C.ar    1  UNL1        0.0215
     21 C         139.4722  142.1707  158.2784 C.ar    1  UNL1        0.1061
     22 C         139.0954  143.0118  159.4619 C.ar    1  UNL1        0.0259
     23 C         140.1536  143.7572  160.2199 C.ar    1  UNL1        0.0887
     24 S         138.4139  141.4253  157.5205 S.O2    1  UNL1        0.0105
     25 C         137.3556  140.6799  156.7626 C.3     1  UNL1        0.1816
     26 O         139.2003  140.1568  157.6701 O.2     1  UNL1       -0.1686
     27 O         137.6276  142.6940  157.3709 O.2     1  UNL1       -0.1686
     28 O         142.6471  144.4068  160.5521 O.3     1  UNL1       -0.4790
     29 C         143.6498  144.5017  162.9471 C.3     1  UNL1        0.0472
     30 C         143.3678  143.7399  161.6861 C.3     1  UNL1        0.1661
     31 C         143.8066  142.3112  161.5589 C.3     1  UNL1        0.0472
@<TRIPOS>BOND
     1    29    30    1
     2    30    31    1
     3    30    28    1
     4    28    18    1
     5    18    19   ar
     6    19    20   ar
     7    20    21   ar
     8    21    24    1
     9    24    25    1
    10    24    26    2
    11    24    27    2
    12    21    22   ar
    13    22    23   ar
    14    23     1    1
    15     1     2    2
    16     1     3   am
    17     3     4    1
    18     4     5    1
    19     5     6   ar
    20     6     7   ar
    21     7    11    1
    22    11    12   ar
    23    12    13   ar
    24    13    14   ar
    25    14    15   ar
    26    15    16   ar
    27    16    17    1
    28     7     8   ar
    29     8     9   ar
    30     9    10    1
    31    23    18   ar
    32    10     3    1
    33     9     5   ar
    34    16    11   ar
