@<TRIPOS>MOLECULE
*****
 34 37 0 0 0
SMALL
GASTEIGER

@<TRIPOS>ATOM
      1 C         139.0141  144.3295  163.3311 C.2     1  UNL1        0.2470
      2 O         137.7132  144.1166  162.6153 O.2     1  UNL1       -0.2701
      3 N         139.9613  145.3949  162.8646 N.am    1  UNL1       -0.3008
      4 H         140.8151  145.5346  163.3343 H       1  UNL1        0.1497
      5 C         138.0314  141.2604  163.8454 C.3     1  UNL1        0.0502
      6 C         138.9162  142.0661  164.7498 C.ar    1  UNL1        0.0418
      7 C         139.3679  143.4767  164.5134 C.ar    1  UNL1        0.0664
      8 C         140.2355  143.8851  165.6669 C.ar    1  UNL1        0.0229
      9 C         140.3200  142.7268  166.6162 C.ar    1  UNL1        0.0614
     10 N         139.5046  141.6025  166.0494 N.ar    1  UNL1       -0.3284
     11 C         139.3115  140.2519  166.6727 C.3     1  UNL1        0.1301
     12 C         141.0855  142.6978  167.9058 C.ar    1  UNL1        0.0350
     13 C         142.4851  142.1590  167.9352 C.ar    1  UNL1        0.0046
     14 C         143.2506  142.1299  169.2249 C.ar    1  UNL1        0.0207
     15 C         142.6165  142.6397  170.4851 C.ar    1  UNL1        0.0989
     16 N         141.2169  143.1785  170.4556 N.ar    1  UNL1       -0.2423
     17 C         140.4514  143.2075  169.1660 C.ar    1  UNL1        0.1003
     18 C         139.6075  146.2476  161.6823 C.3     1  UNL1        0.0911
     19 C         140.0734  145.8583  160.3106 C.3     1  UNL1        0.0386
     20 C         141.2690  144.9671  160.1494 C.3     1  UNL1        0.0739
     21 N         141.3383  143.6639  160.8891 N.3     1  UNL1       -0.2697
     22 C         142.3805  143.4570  161.9479 C.3     1  UNL1        0.0938
     23 C         142.4497  142.1539  162.6876 C.3     1  UNL1        0.1081
     24 N         141.4768  141.0578  162.3684 N.pl3   1  UNL1       -0.3040
     25 C         140.4346  141.2647  161.3097 C.3     1  UNL1        0.1081
     26 C         140.3654  142.5677  160.5700 C.3     1  UNL1        0.0938
     27 C         141.5461  139.7546  163.1082 C.ar    1  UNL1        0.0594
     28 C         140.7707  138.5695  162.6139 C.ar    1  UNL1        0.0154
     29 C         140.8400  137.2664  163.3537 C.ar    1  UNL1        0.0022
     30 C         141.6847  137.1485  164.5876 C.ar    1  UNL1        0.0123
     31 C         142.4600  138.3337  165.0818 C.ar    1  UNL1        0.0694
     32 CL        143.3047  138.2157  166.3158 Cl      1  UNL1       -0.0813
     33 C         142.3907  139.6367  164.3421 C.ar    1  UNL1        0.0815
     34 CL        143.1661  140.8219  164.8364 Cl      1  UNL1       -0.0801
@<TRIPOS>BOND
     1     5     6    1
     2     6     7   ar
     3     7     1    1
     4     1     2    2
     5     1     3   am
     6     3    18    1
     7    18    19    1
     8    19    20    1
     9    20    21    1
    10    21    22    1
    11    22    23    1
    12    23    24    1
    13    24    27    1
    14    27    28   ar
    15    28    29   ar
    16    29    30   ar
    17    30    31   ar
    18    31    32    1
    19    31    33   ar
    20    33    34    1
    21    24    25    1
    22    25    26    1
    23     7     8   ar
    24     8     9   ar
    25     9    12    1
    26    12    13   ar
    27    13    14   ar
    28    14    15   ar
    29    15    16   ar
    30    16    17   ar
    31     9    10   ar
    32    10    11    1
    33    10     6   ar
    34    26    21    1
    35    17    12   ar
    36    33    27   ar
    37     3     4    1
@<TRIPOS>MOLECULE
*****
 34 37 0 0 0
SMALL
GASTEIGER

@<TRIPOS>ATOM
      1 C         139.9441  144.6898  163.0337 C.2     1  UNL1        0.2470
      2 O         138.4614  144.9107  162.9803 O.2     1  UNL1       -0.2701
      3 N         140.8162  145.1804  161.9163 N.am    1  UNL1       -0.3008
      4 H         141.7893  145.0354  161.9514 H       1  UNL1        0.1497
      5 C         143.0690  143.7928  163.3168 C.3     1  UNL1        0.0502
      6 C         141.9909  143.5661  164.3348 C.ar    1  UNL1        0.0418
      7 C         140.5546  143.9784  164.2048 C.ar    1  UNL1        0.0664
      8 C         139.8359  143.5544  165.4513 C.ar    1  UNL1        0.0229
      9 C         140.8281  142.8801  166.3517 C.ar    1  UNL1        0.0614
     10 N         142.1600  142.8873  165.6617 N.ar    1  UNL1       -0.3284
     11 C         143.4368  142.3160  166.2035 C.3     1  UNL1        0.1301
     12 C         140.5392  142.3003  167.7046 C.ar    1  UNL1        0.0350
     13 C         140.3466  140.8210  167.8610 C.ar    1  UNL1        0.0046
     14 C         140.0576  140.2412  169.2139 C.ar    1  UNL1        0.0207
     15 C         139.9613  141.1408  170.4104 C.ar    1  UNL1        0.0989
     16 N         140.1539  142.6201  170.2540 N.ar    1  UNL1       -0.2423
     17 C         140.4428  143.1999  168.9011 C.ar    1  UNL1        0.1003
     18 C         140.2056  145.8917  160.7454 C.3     1  UNL1        0.0911
     19 C         140.4311  145.3773  159.3544 C.3     1  UNL1        0.0386
     20 C         139.8934  144.0352  158.9548 C.3     1  UNL1        0.0739
     21 N         139.8083  142.9300  159.9656 N.3     1  UNL1       -0.2697
     22 C         138.4697  142.4629  160.4552 C.3     1  UNL1        0.0938
     23 C         138.3847  141.3578  161.4658 C.3     1  UNL1        0.1081
     24 N         139.6383  140.7199  161.9869 N.pl3   1  UNL1       -0.3040
     25 C         140.9769  141.1871  161.4973 C.3     1  UNL1        0.1081
     26 C         141.0619  142.2922  160.4867 C.3     1  UNL1        0.0938
     27 C         139.5532  139.6147  162.9976 C.ar    1  UNL1        0.0594
     28 C         140.3083  138.3375  162.7777 C.ar    1  UNL1        0.0154
     29 C         140.2233  137.2323  163.7884 C.ar    1  UNL1        0.0022
     30 C         139.3831  137.4045  165.0191 C.ar    1  UNL1        0.0123
     31 C         138.6279  138.6818  165.2389 C.ar    1  UNL1        0.0694
     32 CL        137.7877  138.8540  166.4695 Cl      1  UNL1       -0.0813
     33 C         138.7130  139.7869  164.2282 C.ar    1  UNL1        0.0815
     34 CL        137.9579  141.0642  164.4481 Cl      1  UNL1       -0.0801
@<TRIPOS>BOND
     1     5     6    1
     2     6     7   ar
     3     7     1    1
     4     1     2    2
     5     1     3   am
     6     3    18    1
     7    18    19    1
     8    19    20    1
     9    20    21    1
    10    21    22    1
    11    22    23    1
    12    23    24    1
    13    24    27    1
    14    27    28   ar
    15    28    29   ar
    16    29    30   ar
    17    30    31   ar
    18    31    32    1
    19    31    33   ar
    20    33    34    1
    21    24    25    1
    22    25    26    1
    23     7     8   ar
    24     8     9   ar
    25     9    12    1
    26    12    13   ar
    27    13    14   ar
    28    14    15   ar
    29    15    16   ar
    30    16    17   ar
    31     9    10   ar
    32    10    11    1
    33    10     6   ar
    34    26    21    1
    35    17    12   ar
    36    33    27   ar
    37     3     4    1
@<TRIPOS>MOLECULE
*****
 34 37 0 0 0
SMALL
GASTEIGER

@<TRIPOS>ATOM
      1 C         138.7049  139.6735  167.5992 C.2     1  UNL1        0.2470
      2 O         137.7335  138.7699  168.2992 O.2     1  UNL1       -0.2701
      3 N         139.6231  140.5503  168.3980 N.am    1  UNL1       -0.3008
      4 H         140.2606  141.1433  167.9386 H       1  UNL1        0.1497
      5 C         138.3348  137.1050  165.6205 C.3     1  UNL1        0.0502
      6 C         138.5879  138.5196  165.1909 C.ar    1  UNL1        0.0418
      7 C         138.7580  139.7002  166.1004 C.ar    1  UNL1        0.0664
      8 C         138.9906  140.9124  165.2479 C.ar    1  UNL1        0.0229
      9 C         138.9643  140.4809  163.8115 C.ar    1  UNL1        0.0614
     10 N         138.7154  139.0021  163.7763 N.ar    1  UNL1       -0.3284
     11 C         138.6121  138.1545  162.5430 C.3     1  UNL1        0.1301
     12 C         139.1536  141.3718  162.6197 C.ar    1  UNL1        0.0350
     13 C         140.4836  141.4272  161.9285 C.ar    1  UNL1        0.0046
     14 C         140.6729  142.3180  160.7366 C.ar    1  UNL1        0.0207
     15 C         139.5321  143.1535  160.2360 C.ar    1  UNL1        0.0989
     16 N         138.2020  143.0981  160.9272 N.ar    1  UNL1       -0.2423
     17 C         138.0128  142.2072  162.1191 C.ar    1  UNL1        0.1003
     18 C         139.5699  140.5235  169.8968 C.3     1  UNL1        0.0911
     19 C         140.8188  140.2669  170.6872 C.3     1  UNL1        0.0386
     20 C         142.1421  140.7571  170.1788 C.3     1  UNL1        0.0739
     21 N         142.4867  140.6150  168.7258 N.3     1  UNL1       -0.2697
     22 C         142.5956  141.8337  167.8581 C.3     1  UNL1        0.0938
     23 C         142.9403  141.6915  166.4052 C.3     1  UNL1        0.1081
     24 N         143.1760  140.3306  165.8200 N.pl3   1  UNL1       -0.3040
     25 C         143.0671  139.1119  166.6877 C.3     1  UNL1        0.1081
     26 C         142.7225  139.2541  168.1406 C.3     1  UNL1        0.0938
     27 C         143.5207  140.1885  164.3670 C.ar    1  UNL1        0.0594
     28 C         144.4544  141.1670  163.7185 C.ar    1  UNL1        0.0154
     29 C         144.7990  141.0249  162.2655 C.ar    1  UNL1        0.0022
     30 C         144.2099  139.9042  161.4611 C.ar    1  UNL1        0.0123
     31 C         143.2761  138.9257  162.1097 C.ar    1  UNL1        0.0694
     32 CL        142.6870  137.8050  161.3053 Cl      1  UNL1       -0.0813
     33 C         142.9315  139.0678  163.5626 C.ar    1  UNL1        0.0815
     34 CL        141.9978  138.0893  164.2112 Cl      1  UNL1       -0.0801
@<TRIPOS>BOND
     1     5     6    1
     2     6     7   ar
     3     7     1    1
     4     1     2    2
     5     1     3   am
     6     3    18    1
     7    18    19    1
     8    19    20    1
     9    20    21    1
    10    21    22    1
    11    22    23    1
    12    23    24    1
    13    24    27    1
    14    27    28   ar
    15    28    29   ar
    16    29    30   ar
    17    30    31   ar
    18    31    32    1
    19    31    33   ar
    20    33    34    1
    21    24    25    1
    22    25    26    1
    23     7     8   ar
    24     8     9   ar
    25     9    12    1
    26    12    13   ar
    27    13    14   ar
    28    14    15   ar
    29    15    16   ar
    30    16    17   ar
    31     9    10   ar
    32    10    11    1
    33    10     6   ar
    34    26    21    1
    35    17    12   ar
    36    33    27   ar
    37     3     4    1
@<TRIPOS>MOLECULE
*****
 34 37 0 0 0
SMALL
GASTEIGER

@<TRIPOS>ATOM
      1 C         140.7319  145.0856  162.1333 C.2     1  UNL1        0.2470
      2 O         139.8084  146.2586  162.2793 O.2     1  UNL1       -0.2701
      3 N         141.2273  144.6856  160.7752 N.am    1  UNL1       -0.3008
      4 H         141.8335  143.9157  160.6794 H       1  UNL1        0.1497
      5 C         143.8061  144.6205  163.1248 C.3     1  UNL1        0.0502
      6 C         142.5730  144.0989  163.8013 C.ar    1  UNL1        0.0418
      7 C         141.1600  144.3127  163.3455 C.ar    1  UNL1        0.0664
      8 C         140.2502  143.6179  164.3148 C.ar    1  UNL1        0.0229
      9 C         141.1009  142.9747  165.3696 C.ar    1  UNL1        0.0614
     10 N         142.5366  143.2720  165.0522 N.ar    1  UNL1       -0.3284
     11 C         143.7267  142.8215  165.8463 C.3     1  UNL1        0.1301
     12 C         140.6035  142.1747  166.5369 C.ar    1  UNL1        0.0350
     13 C         139.9339  140.8520  166.3087 C.ar    1  UNL1        0.0046
     14 C         139.4364  140.0519  167.4759 C.ar    1  UNL1        0.0207
     15 C         139.6085  140.5746  168.8713 C.ar    1  UNL1        0.0989
     16 N         140.2781  141.8974  169.0995 N.ar    1  UNL1       -0.2423
     17 C         140.7755  142.6974  167.9323 C.ar    1  UNL1        0.1003
     18 C         140.7992  145.4585  159.5631 C.3     1  UNL1        0.0911
     19 C         140.4421  144.7339  158.2991 C.3     1  UNL1        0.0386
     20 C         139.4872  143.5780  158.3414 C.3     1  UNL1        0.0739
     21 N         139.6187  142.5353  159.4117 N.3     1  UNL1       -0.2697
     22 C         140.7070  141.5066  159.3270 C.3     1  UNL1        0.0938
     23 C         140.8385  140.4639  160.3973 C.3     1  UNL1        0.1081
     24 N         139.8816  140.4500  161.5524 N.pl3   1  UNL1       -0.3040
     25 C         138.7933  141.4788  161.6371 C.3     1  UNL1        0.1081
     26 C         138.6618  142.5214  160.5668 C.3     1  UNL1        0.0938
     27 C         140.0131  139.4073  162.6227 C.ar    1  UNL1        0.0594
     28 C         138.8838  138.4557  162.8855 C.ar    1  UNL1        0.0154
     29 C         139.0153  137.4130  163.9559 C.ar    1  UNL1        0.0022
     30 C         140.2761  137.3220  164.7634 C.ar    1  UNL1        0.0123
     31 C         141.4054  138.2737  164.5005 C.ar    1  UNL1        0.0694
     32 CL        142.6662  138.1827  165.3080 Cl      1  UNL1       -0.0813
     33 C         141.2739  139.3163  163.4302 C.ar    1  UNL1        0.0815
     34 CL        142.4032  140.2680  163.1674 Cl      1  UNL1       -0.0801
@<TRIPOS>BOND
     1     5     6    1
     2     6     7   ar
     3     7     1    1
     4     1     2    2
     5     1     3   am
     6     3    18    1
     7    18    19    1
     8    19    20    1
     9    20    21    1
    10    21    22    1
    11    22    23    1
    12    23    24    1
    13    24    27    1
    14    27    28   ar
    15    28    29   ar
    16    29    30   ar
    17    30    31   ar
    18    31    32    1
    19    31    33   ar
    20    33    34    1
    21    24    25    1
    22    25    26    1
    23     7     8   ar
    24     8     9   ar
    25     9    12    1
    26    12    13   ar
    27    13    14   ar
    28    14    15   ar
    29    15    16   ar
    30    16    17   ar
    31     9    10   ar
    32    10    11    1
    33    10     6   ar
    34    26    21    1
    35    17    12   ar
    36    33    27   ar
    37     3     4    1
@<TRIPOS>MOLECULE
*****
 34 37 0 0 0
SMALL
GASTEIGER

@<TRIPOS>ATOM
      1 C         143.2844  138.5229  166.5705 C.2     1  UNL1        0.2470
      2 O         144.2393  137.4136  166.8988 O.2     1  UNL1       -0.2701
      3 N         142.5924  139.2679  167.6733 N.am    1  UNL1       -0.3008
      4 H         141.9658  139.9959  167.4578 H       1  UNL1        0.1497
      5 C         145.4859  139.6546  164.4438 C.3     1  UNL1        0.0502
      6 C         144.0335  139.4074  164.1618 C.ar    1  UNL1        0.0418
      7 C         143.0216  138.8873  165.1393 C.ar    1  UNL1        0.0664
      8 C         141.7008  138.7954  164.4344 C.ar    1  UNL1        0.0229
      9 C         141.8963  139.2588  163.0212 C.ar    1  UNL1        0.0614
     10 N         143.3381  139.6370  162.8528 N.ar    1  UNL1       -0.3284
     11 C         143.9729  140.1541  161.5959 C.3     1  UNL1        0.1301
     12 C         140.8363  139.3312  161.9624 C.ar    1  UNL1        0.0350
     13 C         139.8000  140.4146  162.0115 C.ar    1  UNL1        0.0046
     14 C         138.7400  140.4870  160.9527 C.ar    1  UNL1        0.0207
     15 C         138.7162  139.4760  159.8448 C.ar    1  UNL1        0.0989
     16 N         139.7525  138.3926  159.7957 N.ar    1  UNL1       -0.2423
     17 C         140.8125  138.3202  160.8545 C.ar    1  UNL1        0.1003
     18 C         142.8553  138.9035  169.1044 C.3     1  UNL1        0.0911
     19 C         141.9914  139.4682  170.1929 C.3     1  UNL1        0.0386
     20 C         140.5925  139.9135  169.8853 C.3     1  UNL1        0.0739
     21 N         140.3095  140.6832  168.6292 N.3     1  UNL1       -0.2697
     22 C         140.7636  142.1073  168.5038 C.3     1  UNL1        0.0938
     23 C         140.4806  142.8769  167.2478 C.3     1  UNL1        0.1081
     24 N         139.7436  142.2224  166.1171 N.pl3   1  UNL1       -0.3040
     25 C         139.2895  140.7983  166.2425 C.3     1  UNL1        0.1081
     26 C         139.5725  140.0287  167.4985 C.3     1  UNL1        0.0938
     27 C         139.4606  142.9920  164.8611 C.ar    1  UNL1        0.0594
     28 C         138.0737  143.4916  164.5839 C.ar    1  UNL1        0.0154
     29 C         137.7908  144.2612  163.3278 C.ar    1  UNL1        0.0022
     30 C         138.8948  144.5313  162.3490 C.ar    1  UNL1        0.0123
     31 C         140.2818  144.0317  162.6262 C.ar    1  UNL1        0.0694
     32 CL        141.3858  144.3018  161.6473 Cl      1  UNL1       -0.0813
     33 C         140.5647  143.2621  163.8822 C.ar    1  UNL1        0.0815
     34 CL        141.9517  142.7625  164.1594 Cl      1  UNL1       -0.0801
@<TRIPOS>BOND
     1     5     6    1
     2     6     7   ar
     3     7     1    1
     4     1     2    2
     5     1     3   am
     6     3    18    1
     7    18    19    1
     8    19    20    1
     9    20    21    1
    10    21    22    1
    11    22    23    1
    12    23    24    1
    13    24    27    1
    14    27    28   ar
    15    28    29   ar
    16    29    30   ar
    17    30    31   ar
    18    31    32    1
    19    31    33   ar
    20    33    34    1
    21    24    25    1
    22    25    26    1
    23     7     8   ar
    24     8     9   ar
    25     9    12    1
    26    12    13   ar
    27    13    14   ar
    28    14    15   ar
    29    15    16   ar
    30    16    17   ar
    31     9    10   ar
    32    10    11    1
    33    10     6   ar
    34    26    21    1
    35    17    12   ar
    36    33    27   ar
    37     3     4    1
@<TRIPOS>MOLECULE
*****
 34 37 0 0 0
SMALL
GASTEIGER

@<TRIPOS>ATOM
      1 C         138.7616  139.6188  167.4295 C.2     1  UNL1        0.2470
      2 O         137.7497  138.7743  168.1455 O.2     1  UNL1       -0.2701
      3 N         139.7041  140.4848  168.2117 N.am    1  UNL1       -0.3008
      4 H         140.3683  141.0391  167.7417 H       1  UNL1        0.1497
      5 C         138.4566  136.9810  165.5324 C.3     1  UNL1        0.0502
      6 C         138.6908  138.3850  165.0593 C.ar    1  UNL1        0.0418
      7 C         138.8310  139.5975  165.9312 C.ar    1  UNL1        0.0664
      8 C         139.0528  140.7849  165.0418 C.ar    1  UNL1        0.0229
      9 C         139.0497  140.3063  163.6202 C.ar    1  UNL1        0.0614
     10 N         138.8260  138.8231  163.6310 N.ar    1  UNL1       -0.3284
     11 C         138.7506  137.9340  162.4252 C.3     1  UNL1        0.1301
     12 C         139.2373  141.1608  162.4018 C.ar    1  UNL1        0.0350
     13 C         138.2622  142.2597  162.0991 C.ar    1  UNL1        0.0046
     14 C         138.4499  143.1142  160.8807 C.ar    1  UNL1        0.0207
     15 C         139.6126  142.8699  159.9650 C.ar    1  UNL1        0.0989
     16 N         140.5877  141.7710  160.2678 N.ar    1  UNL1       -0.2423
     17 C         140.4001  140.9165  161.4862 C.ar    1  UNL1        0.1003
     18 C         139.6347  140.5061  169.7099 C.3     1  UNL1        0.0911
     19 C         140.6897  139.8122  170.5196 C.3     1  UNL1        0.0386
     20 C         142.1393  140.0067  170.1869 C.3     1  UNL1        0.0739
     21 N         142.5375  140.4937  168.8251 N.3     1  UNL1       -0.2697
     22 C         142.8979  141.9352  168.6199 C.3     1  UNL1        0.0938
     23 C         143.2961  142.4221  167.2581 C.3     1  UNL1        0.1081
     24 N         143.3339  141.4675  166.1017 N.pl3   1  UNL1       -0.3040
     25 C         142.9735  140.0261  166.3070 C.3     1  UNL1        0.1081
     26 C         142.5753  139.5391  167.6687 C.3     1  UNL1        0.0938
     27 C         143.7321  141.9545  164.7399 C.ar    1  UNL1        0.0594
     28 C         145.0265  141.5033  164.1309 C.ar    1  UNL1        0.0154
     29 C         145.4247  141.9903  162.7691 C.ar    1  UNL1        0.0022
     30 C         144.5285  142.9285  162.0165 C.ar    1  UNL1        0.0123
     31 C         143.2341  143.3798  162.6256 C.ar    1  UNL1        0.0694
     32 CL        142.3379  144.3180  161.8729 Cl      1  UNL1       -0.0813
     33 C         142.8359  142.8928  163.9873 C.ar    1  UNL1        0.0815
     34 CL        141.5415  143.3440  164.5964 Cl      1  UNL1       -0.0801
@<TRIPOS>BOND
     1     5     6    1
     2     6     7   ar
     3     7     1    1
     4     1     2    2
     5     1     3   am
     6     3    18    1
     7    18    19    1
     8    19    20    1
     9    20    21    1
    10    21    22    1
    11    22    23    1
    12    23    24    1
    13    24    27    1
    14    27    28   ar
    15    28    29   ar
    16    29    30   ar
    17    30    31   ar
    18    31    32    1
    19    31    33   ar
    20    33    34    1
    21    24    25    1
    22    25    26    1
    23     7     8   ar
    24     8     9   ar
    25     9    12    1
    26    12    13   ar
    27    13    14   ar
    28    14    15   ar
    29    15    16   ar
    30    16    17   ar
    31     9    10   ar
    32    10    11    1
    33    10     6   ar
    34    26    21    1
    35    17    12   ar
    36    33    27   ar
    37     3     4    1
@<TRIPOS>MOLECULE
*****
 34 37 0 0 0
SMALL
GASTEIGER

@<TRIPOS>ATOM
      1 C         138.6007  138.6460  163.2810 C.2     1  UNL1        0.2470
      2 O         138.4407  137.1846  162.9834 O.2     1  UNL1       -0.2701
      3 N         137.9688  139.6679  162.3830 N.am    1  UNL1       -0.3008
      4 H         138.0738  140.6271  162.5783 H       1  UNL1        0.1497
      5 C         141.6941  137.8383  163.9356 C.3     1  UNL1        0.0502
      6 C         140.8146  138.7143  164.7775 C.ar    1  UNL1        0.0418
      7 C         139.3927  139.0856  164.4767 C.ar    1  UNL1        0.0664
      8 C         138.9019  139.9737  165.5814 C.ar    1  UNL1        0.0229
      9 C         140.0203  140.1512  166.5650 C.ar    1  UNL1        0.0614
     10 N         141.2025  139.3729  166.0682 N.ar    1  UNL1       -0.3284
     11 C         142.5380  139.2710  166.7434 C.3     1  UNL1        0.1301
     12 C         139.9662  140.9643  167.8243 C.ar    1  UNL1        0.0350
     13 C         140.4907  142.3696  167.8328 C.ar    1  UNL1        0.0046
     14 C         140.4365  143.1827  169.0922 C.ar    1  UNL1        0.0207
     15 C         139.8579  142.5905  170.3430 C.ar    1  UNL1        0.0989
     16 N         139.3335  141.1853  170.3345 N.ar    1  UNL1       -0.2423
     17 C         139.3876  140.3722  169.0752 C.ar    1  UNL1        0.1003
     18 C         137.1769  139.2283  161.1874 C.3     1  UNL1        0.0911
     19 C         137.2383  140.0198  159.9146 C.3     1  UNL1        0.0386
     20 C         138.5652  140.3303  159.2879 C.3     1  UNL1        0.0739
     21 N         139.7451  140.6594  160.1538 N.3     1  UNL1       -0.2697
     22 C         140.7803  139.6124  160.4404 C.3     1  UNL1        0.0938
     23 C         141.9601  139.9415  161.3063 C.3     1  UNL1        0.1081
     24 N         142.1047  141.3176  161.8854 N.pl3   1  UNL1       -0.3040
     25 C         141.0696  142.3646  161.5987 C.3     1  UNL1        0.1081
     26 C         139.8898  142.0355  160.7329 C.3     1  UNL1        0.0938
     27 C         143.2846  141.6466  162.7513 C.ar    1  UNL1        0.0594
     28 C         144.6757  141.3877  162.2535 C.ar    1  UNL1        0.0154
     29 C         145.8555  141.7168  163.1194 C.ar    1  UNL1        0.0022
     30 C         145.6443  142.3048  164.4831 C.ar    1  UNL1        0.0123
     31 C         144.2531  142.5637  164.9809 C.ar    1  UNL1        0.0694
     32 CL        144.0418  143.1517  166.3445 Cl      1  UNL1       -0.0813
     33 C         143.0733  142.2347  164.1150 C.ar    1  UNL1        0.0815
     34 CL        141.6822  142.4936  164.6128 Cl      1  UNL1       -0.0801
@<TRIPOS>BOND
     1     5     6    1
     2     6     7   ar
     3     7     1    1
     4     1     2    2
     5     1     3   am
     6     3    18    1
     7    18    19    1
     8    19    20    1
     9    20    21    1
    10    21    22    1
    11    22    23    1
    12    23    24    1
    13    24    27    1
    14    27    28   ar
    15    28    29   ar
    16    29    30   ar
    17    30    31   ar
    18    31    32    1
    19    31    33   ar
    20    33    34    1
    21    24    25    1
    22    25    26    1
    23     7     8   ar
    24     8     9   ar
    25     9    12    1
    26    12    13   ar
    27    13    14   ar
    28    14    15   ar
    29    15    16   ar
    30    16    17   ar
    31     9    10   ar
    32    10    11    1
    33    10     6   ar
    34    26    21    1
    35    17    12   ar
    36    33    27   ar
    37     3     4    1
@<TRIPOS>MOLECULE
*****
 34 37 0 0 0
SMALL
GASTEIGER

@<TRIPOS>ATOM
      1 C         141.2231  144.0350  159.9069 C.2     1  UNL1        0.2470
      2 O         141.7477  145.3955  159.5550 O.2     1  UNL1       -0.2701
      3 N         141.3063  142.9179  158.9093 N.am    1  UNL1       -0.3008
      4 H         140.9620  142.0250  159.1403 H       1  UNL1        0.1497
      5 C         139.7422  146.2643  161.7742 C.3     1  UNL1        0.0502
      6 C         139.9347  144.8162  162.1148 C.ar    1  UNL1        0.0418
      7 C         140.6153  143.7915  161.2566 C.ar    1  UNL1        0.0664
      8 C         140.5815  142.4806  161.9848 C.ar    1  UNL1        0.0229
      9 C         139.8800  142.6951  163.2932 C.ar    1  UNL1        0.0614
     10 N         139.4802  144.1387  163.3735 N.ar    1  UNL1       -0.3284
     11 C         138.7535  144.7902  164.5126 C.3     1  UNL1        0.1301
     12 C         139.6233  141.6497  164.3378 C.ar    1  UNL1        0.0350
     13 C         140.5418  141.5266  165.5172 C.ar    1  UNL1        0.0046
     14 C         140.2852  140.4812  166.5618 C.ar    1  UNL1        0.0207
     15 C         139.1099  139.5589  166.4270 C.ar    1  UNL1        0.0989
     16 N         138.1914  139.6819  165.2475 N.ar    1  UNL1       -0.2423
     17 C         138.4481  140.7274  164.2029 C.ar    1  UNL1        0.1003
     18 C         141.9141  143.1614  157.5598 C.3     1  UNL1        0.0911
     19 C         143.3801  143.4553  157.4394 C.3     1  UNL1        0.0386
     20 C         144.3878  142.4545  157.9220 C.3     1  UNL1        0.0739
     21 N         144.1647  141.7299  159.2163 N.3     1  UNL1       -0.2697
     22 C         144.3216  142.4564  160.5192 C.3     1  UNL1        0.0938
     23 C         144.0986  141.7318  161.8135 C.3     1  UNL1        0.1081
     24 N         143.7186  140.2807  161.8049 N.pl3   1  UNL1       -0.3040
     25 C         143.5617  139.5543  160.5020 C.3     1  UNL1        0.1081
     26 C         143.7848  140.2789  159.2077 C.3     1  UNL1        0.0938
     27 C         143.4956  139.5562  163.0992 C.ar    1  UNL1        0.0594
     28 C         144.4902  139.6889  164.2141 C.ar    1  UNL1        0.0154
     29 C         144.2672  138.9643  165.5085 C.ar    1  UNL1        0.0022
     30 C         143.0495  138.1070  165.6879 C.ar    1  UNL1        0.0123
     31 C         142.0548  137.9743  164.5729 C.ar    1  UNL1        0.0694
     32 CL        140.8371  137.1169  164.7523 Cl      1  UNL1       -0.0813
     33 C         142.2779  138.6988  163.2786 C.ar    1  UNL1        0.0815
     34 CL        141.2832  138.5661  162.1636 Cl      1  UNL1       -0.0801
@<TRIPOS>BOND
     1     5     6    1
     2     6     7   ar
     3     7     1    1
     4     1     2    2
     5     1     3   am
     6     3    18    1
     7    18    19    1
     8    19    20    1
     9    20    21    1
    10    21    22    1
    11    22    23    1
    12    23    24    1
    13    24    27    1
    14    27    28   ar
    15    28    29   ar
    16    29    30   ar
    17    30    31   ar
    18    31    32    1
    19    31    33   ar
    20    33    34    1
    21    24    25    1
    22    25    26    1
    23     7     8   ar
    24     8     9   ar
    25     9    12    1
    26    12    13   ar
    27    13    14   ar
    28    14    15   ar
    29    15    16   ar
    30    16    17   ar
    31     9    10   ar
    32    10    11    1
    33    10     6   ar
    34    26    21    1
    35    17    12   ar
    36    33    27   ar
    37     3     4    1
@<TRIPOS>MOLECULE
*****
 34 37 0 0 0
SMALL
GASTEIGER

@<TRIPOS>ATOM
      1 C         142.1646  143.8655  160.9285 C.2     1  UNL1        0.2470
      2 O         143.6398  143.9873  161.1710 O.2     1  UNL1       -0.2701
      3 N         141.6180  144.0154  159.5397 N.am    1  UNL1       -0.3008
      4 H         140.6497  143.9355  159.3805 H       1  UNL1        0.1497
      5 C         139.8781  145.8962  162.0678 C.3     1  UNL1        0.0502
      6 C         140.1850  144.5272  162.5984 C.ar    1  UNL1        0.0418
      7 C         141.2360  143.5938  162.0748 C.ar    1  UNL1        0.0664
      8 C         141.1953  142.3410  162.8986 C.ar    1  UNL1        0.0229
      9 C         140.1193  142.5000  163.9315 C.ar    1  UNL1        0.0614
     10 N         139.4948  143.8513  163.7459 N.ar    1  UNL1       -0.3284
     11 C         138.3766  144.4257  164.5642 C.3     1  UNL1        0.1301
     12 C         139.7350  141.4860  164.9679 C.ar    1  UNL1        0.0350
     13 C         138.5324  140.6151  164.7553 C.ar    1  UNL1        0.0046
     14 C         138.1482  139.6011  165.7917 C.ar    1  UNL1        0.0207
     15 C         138.9666  139.4580  167.0406 C.ar    1  UNL1        0.0989
     16 N         140.1692  140.3289  167.2532 N.ar    1  UNL1       -0.2423
     17 C         140.5535  141.3429  166.2168 C.ar    1  UNL1        0.1003
     18 C         142.5466  144.2871  158.3935 C.3     1  UNL1        0.0911
     19 C         142.4880  143.4326  157.1621 C.3     1  UNL1        0.0386
     20 C         142.8320  141.9749  157.2436 C.3     1  UNL1        0.0739
     21 N         142.5193  141.1990  158.4887 N.3     1  UNL1       -0.2697
     22 C         141.1028  140.8128  158.7958 C.3     1  UNL1        0.0938
     23 C         140.7900  140.0370  160.0409 C.3     1  UNL1        0.1081
     24 N         141.8938  139.6473  160.9788 N.pl3   1  UNL1       -0.3040
     25 C         143.3103  140.0334  160.6718 C.3     1  UNL1        0.1081
     26 C         143.6231  140.8093  159.4267 C.3     1  UNL1        0.0938
     27 C         141.5811  138.8714  162.2240 C.ar    1  UNL1        0.0594
     28 C         140.3560  138.0078  162.2816 C.ar    1  UNL1        0.0154
     29 C         140.0432  137.2319  163.5267 C.ar    1  UNL1        0.0022
     30 C         140.9556  137.3196  164.7141 C.ar    1  UNL1        0.0123
     31 C         142.1807  138.1833  164.6564 C.ar    1  UNL1        0.0694
     32 CL        143.0930  138.2710  165.8438 Cl      1  UNL1       -0.0813
     33 C         142.4934  138.9591  163.4114 C.ar    1  UNL1        0.0815
     34 CL        143.7185  139.8228  163.3537 Cl      1  UNL1       -0.0801
@<TRIPOS>BOND
     1     5     6    1
     2     6     7   ar
     3     7     1    1
     4     1     2    2
     5     1     3   am
     6     3    18    1
     7    18    19    1
     8    19    20    1
     9    20    21    1
    10    21    22    1
    11    22    23    1
    12    23    24    1
    13    24    27    1
    14    27    28   ar
    15    28    29   ar
    16    29    30   ar
    17    30    31   ar
    18    31    32    1
    19    31    33   ar
    20    33    34    1
    21    24    25    1
    22    25    26    1
    23     7     8   ar
    24     8     9   ar
    25     9    12    1
    26    12    13   ar
    27    13    14   ar
    28    14    15   ar
    29    15    16   ar
    30    16    17   ar
    31     9    10   ar
    32    10    11    1
    33    10     6   ar
    34    26    21    1
    35    17    12   ar
    36    33    27   ar
    37     3     4    1
