@<TRIPOS>MOLECULE
*****
 35 38 0 0 0
SMALL
GASTEIGER

@<TRIPOS>ATOM
      1 C         140.5022  140.0948  165.7123 C.ar    1  UNL1        0.0844
      2 C         139.6959  139.1245  166.5238 C.ar    1  UNL1        0.1147
      3 N         139.2943  139.4720  167.9266 N.ar    1  UNL1       -0.2425
      4 C         139.6989  140.7898  168.5180 C.ar    1  UNL1        0.0827
      5 C         139.2972  141.1373  169.9208 C.ar    1  UNL1        0.0214
      6 C         139.7019  142.4550  170.5122 C.ar    1  UNL1        0.0312
      7 C         140.5081  143.4253  169.7007 C.ar    1  UNL1        0.1403
      8 F         140.9128  144.7431  170.2922 F       1  UNL1       -0.2042
      9 C         140.9098  143.0779  168.2979 C.ar    1  UNL1        0.0324
     10 C         140.5052  141.7601  167.7066 C.ar    1  UNL1        0.0345
     11 C         140.9068  141.4126  166.3037 C.ar    1  UNL1        0.0646
     12 N         140.4848  139.8863  161.7492 N.am    1  UNL1       -0.2667
     13 C         140.0831  140.2339  163.1520 C.2     1  UNL1        0.3083
     14 O         138.8608  141.0679  163.3974 O.2     1  UNL1       -0.2521
     15 N         140.9038  139.7473  164.3094 N.am    1  UNL1       -0.2658
     16 H         141.2871  139.3389  161.5882 H       1  UNL1        0.1565
     17 H         141.7061  139.1999  164.1484 H       1  UNL1        0.1565
     18 C         138.0227  141.3458  158.2768 C.ar    1  UNL1        0.2359
     19 N         137.7384  140.0054  158.8869 N.ar    1  UNL1       -0.2081
     20 C         138.5590  139.5189  160.0444 C.ar    1  UNL1        0.1167
     21 C         139.6641  140.3729  160.5917 C.ar    1  UNL1        0.0720
     22 C         139.9485  141.7133  159.9816 C.ar    1  UNL1        0.0324
     23 C         139.1278  142.1998  158.8241 C.ar    1  UNL1        0.1120
     24 CL        139.4122  143.5403  158.2139 Cl      1  UNL1       -0.0773
     25 C         136.1479  140.9474  156.5228 C.3     1  UNL1        0.2543
     26 O         137.2020  141.8323  157.1192 O.3     1  UNL1       -0.4556
     27 N         141.7131  142.3829  165.4923 N.pl3   1  UNL1       -0.3050
     28 C         143.2091  142.3902  165.6010 C.3     1  UNL1        0.1122
     29 C         141.0233  143.3459  164.5720 C.3     1  UNL1        0.0889
     30 C         139.7590  144.0252  165.0081 C.3     1  UNL1        0.0226
     31 C         139.0692  144.9882  164.0879 C.3     1  UNL1        0.0191
     32 C         139.6437  145.2719  162.7316 C.3     1  UNL1        0.0722
     33 N         140.9080  144.5927  162.2956 N.3     1  UNL1       -0.2701
     34 C         141.4825  144.8764  160.9393 C.3     1  UNL1        0.0897
     35 C         141.5978  143.6297  163.2158 C.3     1  UNL1        0.0920
@<TRIPOS>BOND
     1    25    26    1
     2    26    18    1
     3    18    19   ar
     4    19    20   ar
     5    20    21   ar
     6    21    12    1
     7    12    13   am
     8    13    14    2
     9    13    15   am
    10    15     1    1
    11     1     2   ar
    12     2     3   ar
    13     3     4   ar
    14     4     5   ar
    15     5     6   ar
    16     6     7   ar
    17     7     8    1
    18     7     9   ar
    19     9    10   ar
    20    10    11   ar
    21    11    27    1
    22    27    28    1
    23    27    29    1
    24    29    30    1
    25    30    31    1
    26    31    32    1
    27    32    33    1
    28    33    34    1
    29    33    35    1
    30    21    22   ar
    31    22    23   ar
    32    23    24    1
    33    23    18   ar
    34    11     1   ar
    35    35    29    1
    36    10     4   ar
    37    12    16    1
    38    15    17    1
@<TRIPOS>MOLECULE
*****
 35 38 0 0 0
SMALL
GASTEIGER

@<TRIPOS>ATOM
      1 C         141.8188  139.5123  165.5983 C.ar    1  UNL1        0.0844
      2 C         143.0696  139.5704  166.4242 C.ar    1  UNL1        0.1147
      3 N         142.9794  139.7554  167.9100 N.ar    1  UNL1       -0.2425
      4 C         141.6384  139.8822  168.5700 C.ar    1  UNL1        0.0827
      5 C         141.5482  140.0671  170.0557 C.ar    1  UNL1        0.0214
      6 C         140.2071  140.1939  170.7157 C.ar    1  UNL1        0.0312
      7 C         138.9563  140.1357  169.8898 C.ar    1  UNL1        0.1403
      8 F         137.6152  140.2625  170.5498 F       1  UNL1       -0.2042
      9 C         139.0465  139.9508  168.4040 C.ar    1  UNL1        0.0324
     10 C         140.3875  139.8240  167.7441 C.ar    1  UNL1        0.0345
     11 C         140.4778  139.6391  166.2582 C.ar    1  UNL1        0.0646
     12 N         142.1194  140.3373  161.7281 N.am    1  UNL1       -0.2667
     13 C         142.0292  140.5223  163.2138 C.2     1  UNL1        0.3083
     14 O         142.0591  141.9023  163.8010 O.2     1  UNL1       -0.2521
     15 N         141.9091  139.3273  164.1124 N.am    1  UNL1       -0.2658
     16 H         142.0998  139.4316  161.3427 H       1  UNL1        0.1565
     17 H         141.8895  138.4216  163.7270 H       1  UNL1        0.1565
     18 C         142.4799  143.9222  159.0321 C.ar    1  UNL1        0.2359
     19 N         143.6764  143.0556  159.2915 N.ar    1  UNL1       -0.2081
     20 C         143.5562  141.8607  160.1901 C.ar    1  UNL1        0.1167
     21 C         142.2396  141.5323  160.8294 C.ar    1  UNL1        0.0720
     22 C         141.0431  142.3990  160.5700 C.ar    1  UNL1        0.0324
     23 C         141.1632  143.5939  159.6713 C.ar    1  UNL1        0.1120
     24 CL        139.9667  144.4606  159.4119 Cl      1  UNL1       -0.0773
     25 C         142.2278  145.0065  156.6845 C.3     1  UNL1        0.2543
     26 O         142.6000  145.1173  158.1334 O.3     1  UNL1       -0.4556
     27 N         139.2270  139.5809  165.4324 N.pl3   1  UNL1       -0.3050
     28 C         138.4769  138.2890  165.2972 C.3     1  UNL1        0.1122
     29 C         138.7262  140.8147  164.7416 C.3     1  UNL1        0.0889
     30 C         137.9141  140.6942  163.4863 C.3     1  UNL1        0.0226
     31 C         137.4134  141.9279  162.7956 C.3     1  UNL1        0.0191
     32 C         137.7248  143.2822  163.3602 C.3     1  UNL1        0.0722
     33 N         138.5369  143.4027  164.6156 N.3     1  UNL1       -0.2701
     34 C         138.8483  144.7571  165.1802 C.3     1  UNL1        0.0897
     35 C         139.0376  142.1690  165.3063 C.3     1  UNL1        0.0920
@<TRIPOS>BOND
     1    25    26    1
     2    26    18    1
     3    18    19   ar
     4    19    20   ar
     5    20    21   ar
     6    21    12    1
     7    12    13   am
     8    13    14    2
     9    13    15   am
    10    15     1    1
    11     1     2   ar
    12     2     3   ar
    13     3     4   ar
    14     4     5   ar
    15     5     6   ar
    16     6     7   ar
    17     7     8    1
    18     7     9   ar
    19     9    10   ar
    20    10    11   ar
    21    11    27    1
    22    27    28    1
    23    27    29    1
    24    29    30    1
    25    30    31    1
    26    31    32    1
    27    32    33    1
    28    33    34    1
    29    33    35    1
    30    21    22   ar
    31    22    23   ar
    32    23    24    1
    33    23    18   ar
    34    11     1   ar
    35    35    29    1
    36    10     4   ar
    37    12    16    1
    38    15    17    1
@<TRIPOS>MOLECULE
*****
 35 38 0 0 0
SMALL
GASTEIGER

@<TRIPOS>ATOM
      1 C         141.3435  138.6270  165.6096 C.ar    1  UNL1        0.0844
      2 C         142.7760  138.4755  166.0277 C.ar    1  UNL1        0.1147
      3 N         143.2790  139.1825  167.2512 N.ar    1  UNL1       -0.2425
      4 C         142.3493  140.0411  168.0567 C.ar    1  UNL1        0.0827
      5 C         142.8523  140.7481  169.2803 C.ar    1  UNL1        0.0214
      6 C         141.9227  141.6066  170.0857 C.ar    1  UNL1        0.0312
      7 C         140.4901  141.7580  169.6676 C.ar    1  UNL1        0.1403
      8 F         139.5604  142.6165  170.4731 F       1  UNL1       -0.2042
      9 C         139.9871  141.0510  168.4441 C.ar    1  UNL1        0.0324
     10 C         140.9168  140.1925  167.6386 C.ar    1  UNL1        0.0345
     11 C         140.4138  139.4854  166.4150 C.ar    1  UNL1        0.0646
     12 N         140.3494  137.9108  161.8348 N.am    1  UNL1       -0.2667
     13 C         140.8523  138.6179  163.0583 C.2     1  UNL1        0.3083
     14 O         141.3670  140.0230  162.9543 O.2     1  UNL1       -0.2521
     15 N         140.8405  137.9199  164.3860 N.am    1  UNL1       -0.2658
     16 H         140.0116  136.9886  161.9031 H       1  UNL1        0.1565
     17 H         140.5027  136.9977  164.4542 H       1  UNL1        0.1565
     18 C         140.3847  140.0047  157.8518 C.ar    1  UNL1        0.2359
     19 N         141.6219  139.3174  158.3488 N.ar    1  UNL1       -0.2081
     20 C         141.6101  138.6194  159.6764 C.ar    1  UNL1        0.1167
     21 C         140.3611  138.6088  160.5071 C.ar    1  UNL1        0.0720
     22 C         139.1240  139.2961  160.0101 C.ar    1  UNL1        0.0324
     23 C         139.1358  139.9941  158.6825 C.ar    1  UNL1        0.1120
     24 CL        137.8986  140.6814  158.1855 Cl      1  UNL1       -0.0773
     25 C         140.7675  142.1539  156.4430 C.3     1  UNL1        0.2543
     26 O         140.3965  140.7027  156.5241 O.3     1  UNL1       -0.4556
     27 N         138.9813  139.6369  165.9969 N.pl3   1  UNL1       -0.3050
     28 C         137.9331  138.7290  166.5687 C.3     1  UNL1        0.1122
     29 C         138.5969  140.6963  165.0069 C.3     1  UNL1        0.0889
     30 C         137.8179  140.3282  163.7791 C.3     1  UNL1        0.0226
     31 C         137.4335  141.3875  162.7891 C.3     1  UNL1        0.0191
     32 C         137.8282  142.8150  163.0270 C.3     1  UNL1        0.0722
     33 N         138.6072  143.1831  164.2549 N.3     1  UNL1       -0.2701
     34 C         139.0018  144.6106  164.4928 C.3     1  UNL1        0.0897
     35 C         138.9916  142.1237  165.2448 C.3     1  UNL1        0.0920
@<TRIPOS>BOND
     1    25    26    1
     2    26    18    1
     3    18    19   ar
     4    19    20   ar
     5    20    21   ar
     6    21    12    1
     7    12    13   am
     8    13    14    2
     9    13    15   am
    10    15     1    1
    11     1     2   ar
    12     2     3   ar
    13     3     4   ar
    14     4     5   ar
    15     5     6   ar
    16     6     7   ar
    17     7     8    1
    18     7     9   ar
    19     9    10   ar
    20    10    11   ar
    21    11    27    1
    22    27    28    1
    23    27    29    1
    24    29    30    1
    25    30    31    1
    26    31    32    1
    27    32    33    1
    28    33    34    1
    29    33    35    1
    30    21    22   ar
    31    22    23   ar
    32    23    24    1
    33    23    18   ar
    34    11     1   ar
    35    35    29    1
    36    10     4   ar
    37    12    16    1
    38    15    17    1
@<TRIPOS>MOLECULE
*****
 35 38 0 0 0
SMALL
GASTEIGER

@<TRIPOS>ATOM
      1 C         141.5862  139.2070  165.5423 C.ar    1  UNL1        0.0844
      2 C         142.8330  138.6860  166.1935 C.ar    1  UNL1        0.1147
      3 N         143.1430  139.0466  167.6160 N.ar    1  UNL1       -0.2425
      4 C         142.2062  139.9283  168.3875 C.ar    1  UNL1        0.0827
      5 C         142.5163  140.2890  169.8101 C.ar    1  UNL1        0.0214
      6 C         141.5795  141.1707  170.5815 C.ar    1  UNL1        0.0312
      7 C         140.3327  141.6917  169.9303 C.ar    1  UNL1        0.1403
      8 F         139.3959  142.5734  170.7018 F       1  UNL1       -0.2042
      9 C         140.0227  141.3310  168.5077 C.ar    1  UNL1        0.0324
     10 C         140.9594  140.4493  167.7363 C.ar    1  UNL1        0.0345
     11 C         140.6494  140.0886  166.3137 C.ar    1  UNL1        0.0646
     12 N         141.6945  139.1646  161.5754 N.am    1  UNL1       -0.2667
     13 C         142.0045  139.5253  162.9979 C.2     1  UNL1        0.3083
     14 O         143.0429  140.5652  163.2988 O.2     1  UNL1       -0.2521
     15 N         141.2762  138.8462  164.1196 N.am    1  UNL1       -0.2658
     16 H         141.0130  138.4821  161.3779 H       1  UNL1        0.1565
     17 H         140.5946  138.1638  163.9222 H       1  UNL1        0.1565
     18 C         143.8796  141.2018  158.2101 C.ar    1  UNL1        0.2359
     19 N         144.1065  139.7434  158.4774 N.ar    1  UNL1       -0.2081
     20 C         143.3781  139.0643  159.5991 C.ar    1  UNL1        0.1167
     21 C         142.4229  139.8437  160.4536 C.ar    1  UNL1        0.0720
     22 C         142.1960  141.3021  160.1863 C.ar    1  UNL1        0.0324
     23 C         142.9243  141.9812  159.0645 C.ar    1  UNL1        0.1120
     24 CL        142.6975  143.4397  158.7972 Cl      1  UNL1       -0.0773
     25 C         146.0156  142.3589  157.2887 C.3     1  UNL1        0.2543
     26 O         144.6080  141.8809  157.0883 O.3     1  UNL1       -0.4556
     27 N         139.4026  140.6096  165.6625 N.pl3   1  UNL1       -0.3050
     28 C         138.1728  139.7528  165.6040 C.3     1  UNL1        0.1122
     29 C         139.3856  141.9875  165.0698 C.3     1  UNL1        0.0889
     30 C         138.0793  142.6413  164.7290 C.3     1  UNL1        0.0226
     31 C         138.0623  144.0191  164.1363 C.3     1  UNL1        0.0191
     32 C         139.3516  144.7431  163.8844 C.3     1  UNL1        0.0722
     33 N         140.6579  144.0893  164.2252 N.3     1  UNL1       -0.2701
     34 C         141.9472  144.8134  163.9732 C.3     1  UNL1        0.0897
     35 C         140.6749  142.7115  164.8179 C.3     1  UNL1        0.0920
@<TRIPOS>BOND
     1    25    26    1
     2    26    18    1
     3    18    19   ar
     4    19    20   ar
     5    20    21   ar
     6    21    12    1
     7    12    13   am
     8    13    14    2
     9    13    15   am
    10    15     1    1
    11     1     2   ar
    12     2     3   ar
    13     3     4   ar
    14     4     5   ar
    15     5     6   ar
    16     6     7   ar
    17     7     8    1
    18     7     9   ar
    19     9    10   ar
    20    10    11   ar
    21    11    27    1
    22    27    28    1
    23    27    29    1
    24    29    30    1
    25    30    31    1
    26    31    32    1
    27    32    33    1
    28    33    34    1
    29    33    35    1
    30    21    22   ar
    31    22    23   ar
    32    23    24    1
    33    23    18   ar
    34    11     1   ar
    35    35    29    1
    36    10     4   ar
    37    12    16    1
    38    15    17    1
@<TRIPOS>MOLECULE
*****
 35 38 0 0 0
SMALL
GASTEIGER

@<TRIPOS>ATOM
      1 C         139.3392  140.7237  164.1234 C.ar    1  UNL1        0.0844
      2 C         138.9728  139.4173  164.7630 C.ar    1  UNL1        0.1147
      3 N         139.0972  139.2484  166.2483 N.ar    1  UNL1       -0.2425
      4 C         139.5879  140.3860  167.0940 C.ar    1  UNL1        0.0827
      5 C         139.7123  140.2171  168.5792 C.ar    1  UNL1        0.0214
      6 C         140.2030  141.3546  169.4249 C.ar    1  UNL1        0.0312
      7 C         140.5694  142.6610  168.7853 C.ar    1  UNL1        0.1403
      8 F         141.0601  143.7986  169.6310 F       1  UNL1       -0.2042
      9 C         140.4450  142.8299  167.3001 C.ar    1  UNL1        0.0324
     10 C         139.9543  141.6924  166.4544 C.ar    1  UNL1        0.0345
     11 C         139.8299  141.8612  164.9691 C.ar    1  UNL1        0.0646
     12 N         140.0084  140.3119  160.2334 N.am    1  UNL1       -0.2667
     13 C         140.1328  140.1430  161.7186 C.2     1  UNL1        0.3083
     14 O         141.1751  139.2246  162.2844 O.2     1  UNL1       -0.2521
     15 N         139.2148  140.8925  162.6381 N.am    1  UNL1       -0.2658
     16 H         139.3242  140.9146  159.8621 H       1  UNL1        0.1565
     17 H         138.5307  141.4953  162.2668 H       1  UNL1        0.1565
     18 C         142.7623  138.0633  157.4748 C.ar    1  UNL1        0.2359
     19 N         143.3251  139.0424  158.4620 N.ar    1  UNL1       -0.2081
     20 C         142.4071  139.7919  159.3815 C.ar    1  UNL1        0.1167
     21 C         140.9264  139.5623  159.3138 C.ar    1  UNL1        0.0720
     22 C         140.3635  138.5832  158.3266 C.ar    1  UNL1        0.0324
     23 C         141.2815  137.8337  157.4071 C.ar    1  UNL1        0.1120
     24 CL        140.7187  136.8546  156.4198 Cl      1  UNL1       -0.0773
     25 C         144.1663  137.9589  155.2912 C.3     1  UNL1        0.2543
     26 O         143.6803  137.3138  156.5552 O.3     1  UNL1       -0.4556
     27 N         140.1963  143.1676  164.3295 N.pl3   1  UNL1       -0.3050
     28 C         139.1525  144.2276  164.1378 C.3     1  UNL1        0.1122
     29 C         141.6066  143.4139  163.8816 C.3     1  UNL1        0.0889
     30 C         142.1513  144.8113  163.8534 C.3     1  UNL1        0.0226
     31 C         143.5614  145.0576  163.4055 C.3     1  UNL1        0.0191
     32 C         144.4269  143.9067  162.9858 C.3     1  UNL1        0.0722
     33 N         143.8822  142.5094  163.0140 N.3     1  UNL1       -0.2701
     34 C         144.7478  141.3584  162.5943 C.3     1  UNL1        0.0897
     35 C         142.4721  142.2630  163.4619 C.3     1  UNL1        0.0920
@<TRIPOS>BOND
     1    25    26    1
     2    26    18    1
     3    18    19   ar
     4    19    20   ar
     5    20    21   ar
     6    21    12    1
     7    12    13   am
     8    13    14    2
     9    13    15   am
    10    15     1    1
    11     1     2   ar
    12     2     3   ar
    13     3     4   ar
    14     4     5   ar
    15     5     6   ar
    16     6     7   ar
    17     7     8    1
    18     7     9   ar
    19     9    10   ar
    20    10    11   ar
    21    11    27    1
    22    27    28    1
    23    27    29    1
    24    29    30    1
    25    30    31    1
    26    31    32    1
    27    32    33    1
    28    33    34    1
    29    33    35    1
    30    21    22   ar
    31    22    23   ar
    32    23    24    1
    33    23    18   ar
    34    11     1   ar
    35    35    29    1
    36    10     4   ar
    37    12    16    1
    38    15    17    1
@<TRIPOS>MOLECULE
*****
 35 38 0 0 0
SMALL
GASTEIGER

@<TRIPOS>ATOM
      1 C         143.0269  140.2285  164.7292 C.ar    1  UNL1        0.0844
      2 C         143.0784  138.8645  165.3511 C.ar    1  UNL1        0.1147
      3 N         142.9370  138.7117  166.8366 N.ar    1  UNL1       -0.2425
      4 C         142.7441  139.9229  167.7002 C.ar    1  UNL1        0.0827
      5 C         142.6027  139.7701  169.1856 C.ar    1  UNL1        0.0214
      6 C         142.4097  140.9813  170.0491 C.ar    1  UNL1        0.0312
      7 C         142.3581  142.3453  169.4272 C.ar    1  UNL1        0.1403
      8 F         142.1651  143.5565  170.2908 F       1  UNL1       -0.2042
      9 C         142.4995  142.4981  167.9418 C.ar    1  UNL1        0.0324
     10 C         142.6925  141.2869  167.0783 C.ar    1  UNL1        0.0345
     11 C         142.8339  141.4397  165.5927 C.ar    1  UNL1        0.0646
     12 N         142.0939  140.4919  160.8808 N.am    1  UNL1       -0.2667
     13 C         141.9525  140.3391  162.3663 C.2     1  UNL1        0.3083
     14 O         140.5952  140.1442  162.9743 O.2     1  UNL1       -0.2521
     15 N         143.1683  140.3813  163.2437 N.am    1  UNL1       -0.2658
     16 H         142.9848  140.6199  160.4817 H       1  UNL1        0.1565
     17 H         144.0591  140.5093  162.8446 H       1  UNL1        0.1565
     18 C         138.4464  140.3653  158.2484 C.ar    1  UNL1        0.2359
     19 N         139.1071  139.0885  158.6764 N.ar    1  UNL1       -0.2081
     20 C         140.3229  139.1307  159.5538 C.ar    1  UNL1        0.1167
     21 C         140.8780  140.4497  160.0033 C.ar    1  UNL1        0.0720
     22 C         140.2173  141.7265  159.5754 C.ar    1  UNL1        0.0324
     23 C         139.0015  141.6843  158.6979 C.ar    1  UNL1        0.1120
     24 CL        138.3407  142.9612  158.2699 Cl      1  UNL1       -0.0773
     25 C         137.3731  140.4653  155.8845 C.3     1  UNL1        0.2543
     26 O         137.2305  140.3231  157.3709 O.3     1  UNL1       -0.4556
     27 N         142.7824  142.8037  164.9708 N.pl3   1  UNL1       -0.3050
     28 C         144.0479  143.5816  164.7631 C.3     1  UNL1        0.1122
     29 C         141.4651  143.3898  164.5566 C.3     1  UNL1        0.0889
     30 C         140.2014  142.9467  165.2323 C.3     1  UNL1        0.0226
     31 C         138.8842  143.5327  164.8181 C.3     1  UNL1        0.0191
     32 C         138.8308  144.5620  163.7283 C.3     1  UNL1        0.0722
     33 N         140.0946  145.0051  163.0526 N.3     1  UNL1       -0.2701
     34 C         140.0411  146.0344  161.9627 C.3     1  UNL1        0.0897
     35 C         141.4117  144.4191  163.4668 C.3     1  UNL1        0.0920
@<TRIPOS>BOND
     1    25    26    1
     2    26    18    1
     3    18    19   ar
     4    19    20   ar
     5    20    21   ar
     6    21    12    1
     7    12    13   am
     8    13    14    2
     9    13    15   am
    10    15     1    1
    11     1     2   ar
    12     2     3   ar
    13     3     4   ar
    14     4     5   ar
    15     5     6   ar
    16     6     7   ar
    17     7     8    1
    18     7     9   ar
    19     9    10   ar
    20    10    11   ar
    21    11    27    1
    22    27    28    1
    23    27    29    1
    24    29    30    1
    25    30    31    1
    26    31    32    1
    27    32    33    1
    28    33    34    1
    29    33    35    1
    30    21    22   ar
    31    22    23   ar
    32    23    24    1
    33    23    18   ar
    34    11     1   ar
    35    35    29    1
    36    10     4   ar
    37    12    16    1
    38    15    17    1
@<TRIPOS>MOLECULE
*****
 35 38 0 0 0
SMALL
GASTEIGER

@<TRIPOS>ATOM
      1 C         143.9168  141.5453  162.6779 C.ar    1  UNL1        0.0844
      2 C         144.2487  140.1115  162.3883 C.ar    1  UNL1        0.1147
      3 N         144.1088  139.0770  163.4654 N.ar    1  UNL1       -0.2425
      4 C         143.6370  139.4763  164.8322 C.ar    1  UNL1        0.0827
      5 C         143.4972  138.4418  165.9093 C.ar    1  UNL1        0.0214
      6 C         143.0254  138.8412  167.2760 C.ar    1  UNL1        0.0312
      7 C         142.6936  140.2750  167.5656 C.ar    1  UNL1        0.1403
      8 F         142.2218  140.6744  168.9324 F       1  UNL1       -0.2042
      9 C         142.8334  141.3095  166.4885 C.ar    1  UNL1        0.0324
     10 C         143.3052  140.9102  165.1218 C.ar    1  UNL1        0.0345
     11 C         143.4450  141.9447  164.0446 C.ar    1  UNL1        0.0646
     12 N         143.1148  143.7800  159.4978 N.am    1  UNL1       -0.2667
     13 C         142.9748  142.7456  160.5750 C.2     1  UNL1        0.3083
     14 O         141.7531  141.8768  160.6263 O.2     1  UNL1       -0.2521
     15 N         144.0567  142.5799  161.6007 N.am    1  UNL1       -0.2658
     16 H         143.9166  144.3502  159.4641 H       1  UNL1        0.1565
     17 H         144.8585  143.1501  161.5670 H       1  UNL1        0.1565
     18 C         139.8694  144.2772  156.4205 C.ar    1  UNL1        0.2359
     19 N         140.5409  142.9472  156.5941 N.ar    1  UNL1       -0.2081
     20 C         141.6226  142.7815  157.6199 C.ar    1  UNL1        0.1167
     21 C         142.0329  143.9458  158.4720 C.ar    1  UNL1        0.0720
     22 C         141.3614  145.2758  158.2984 C.ar    1  UNL1        0.0324
     23 C         140.2797  145.4415  157.2726 C.ar    1  UNL1        0.1120
     24 CL        139.6081  146.7715  157.0989 Cl      1  UNL1       -0.0773
     25 C         137.4205  143.8804  155.6488 C.3     1  UNL1        0.2543
     26 O         138.7875  144.4430  155.3947 O.3     1  UNL1       -0.4556
     27 N         143.1131  143.3786  164.3342 N.pl3   1  UNL1       -0.3050
     28 C         144.1789  144.3093  164.8320 C.3     1  UNL1        0.1122
     29 C         141.7154  143.8817  164.1259 C.3     1  UNL1        0.0889
     30 C         140.6142  143.4380  165.0428 C.3     1  UNL1        0.0226
     31 C         139.2166  143.9411  164.8346 C.3     1  UNL1        0.0191
     32 C         138.9201  144.8878  163.7096 C.3     1  UNL1        0.0722
     33 N         140.0212  145.3314  162.7927 N.3     1  UNL1       -0.2701
     34 C         139.7247  146.2782  161.6676 C.3     1  UNL1        0.0897
     35 C         141.4189  144.8284  163.0009 C.3     1  UNL1        0.0920
@<TRIPOS>BOND
     1    25    26    1
     2    26    18    1
     3    18    19   ar
     4    19    20   ar
     5    20    21   ar
     6    21    12    1
     7    12    13   am
     8    13    14    2
     9    13    15   am
    10    15     1    1
    11     1     2   ar
    12     2     3   ar
    13     3     4   ar
    14     4     5   ar
    15     5     6   ar
    16     6     7   ar
    17     7     8    1
    18     7     9   ar
    19     9    10   ar
    20    10    11   ar
    21    11    27    1
    22    27    28    1
    23    27    29    1
    24    29    30    1
    25    30    31    1
    26    31    32    1
    27    32    33    1
    28    33    34    1
    29    33    35    1
    30    21    22   ar
    31    22    23   ar
    32    23    24    1
    33    23    18   ar
    34    11     1   ar
    35    35    29    1
    36    10     4   ar
    37    12    16    1
    38    15    17    1
@<TRIPOS>MOLECULE
*****
 35 38 0 0 0
SMALL
GASTEIGER

@<TRIPOS>ATOM
      1 C         141.2245  138.0069  163.4582 C.ar    1  UNL1        0.0844
      2 C         139.8038  137.5572  163.2862 C.ar    1  UNL1        0.1147
      3 N         138.7894  137.8531  164.3508 N.ar    1  UNL1       -0.2425
      4 C         139.1956  138.5988  165.5874 C.ar    1  UNL1        0.0827
      5 C         138.1812  138.8947  166.6520 C.ar    1  UNL1        0.0214
      6 C         138.5874  139.6402  167.8885 C.ar    1  UNL1        0.0312
      7 C         140.0080  140.0899  168.0605 C.ar    1  UNL1        0.1403
      8 F         140.4142  140.8355  169.2971 F       1  UNL1       -0.2042
      9 C         141.0224  139.7940  166.9959 C.ar    1  UNL1        0.0324
     10 C         140.6162  139.0484  165.7594 C.ar    1  UNL1        0.0345
     11 C         141.6307  138.7525  164.6948 C.ar    1  UNL1        0.0646
     12 N         143.2719  138.2230  160.0654 N.am    1  UNL1       -0.2667
     13 C         142.2574  138.5189  161.1299 C.2     1  UNL1        0.3083
     14 O         141.2616  139.6228  160.9309 O.2     1  UNL1       -0.2521
     15 N         142.2389  137.7110  162.3936 N.am    1  UNL1       -0.2658
     16 H         143.9255  137.4984  160.1961 H       1  UNL1        0.1565
     17 H         142.8925  136.9864  162.5242 H       1  UNL1        0.1565
     18 C         143.3275  140.6467  156.2743 C.ar    1  UNL1        0.2359
     19 N         142.6492  139.3091  156.2994 N.ar    1  UNL1       -0.2081
     20 C         142.6306  138.5012  157.5631 C.ar    1  UNL1        0.1167
     21 C         143.2904  139.0309  158.8016 C.ar    1  UNL1        0.0720
     22 C         143.9688  140.3685  158.7766 C.ar    1  UNL1        0.0324
     23 C         143.9874  141.1764  157.5129 C.ar    1  UNL1        0.1120
     24 CL        144.6658  142.5140  157.4877 Cl      1  UNL1       -0.0773
     25 C         142.2313  142.4145  154.7177 C.3     1  UNL1        0.2543
     26 O         143.3461  141.4547  155.0106 O.3     1  UNL1       -0.4556
     27 N         143.0513  139.2021  164.8667 N.pl3   1  UNL1       -0.3050
     28 C         143.9701  138.4506  165.7837 C.3     1  UNL1        0.1122
     29 C         143.5532  140.4035  164.1216 C.3     1  UNL1        0.0889
     30 C         145.0164  140.5431  163.8223 C.3     1  UNL1        0.0226
     31 C         145.5182  141.7443  163.0773 C.3     1  UNL1        0.0191
     32 C         144.5569  142.8059  162.6316 C.3     1  UNL1        0.0722
     33 N         143.0937  142.6663  162.9309 N.3     1  UNL1       -0.2701
     34 C         142.1324  143.7280  162.4851 C.3     1  UNL1        0.0897
     35 C         142.5918  141.4651  163.6759 C.3     1  UNL1        0.0920
@<TRIPOS>BOND
     1    25    26    1
     2    26    18    1
     3    18    19   ar
     4    19    20   ar
     5    20    21   ar
     6    21    12    1
     7    12    13   am
     8    13    14    2
     9    13    15   am
    10    15     1    1
    11     1     2   ar
    12     2     3   ar
    13     3     4   ar
    14     4     5   ar
    15     5     6   ar
    16     6     7   ar
    17     7     8    1
    18     7     9   ar
    19     9    10   ar
    20    10    11   ar
    21    11    27    1
    22    27    28    1
    23    27    29    1
    24    29    30    1
    25    30    31    1
    26    31    32    1
    27    32    33    1
    28    33    34    1
    29    33    35    1
    30    21    22   ar
    31    22    23   ar
    32    23    24    1
    33    23    18   ar
    34    11     1   ar
    35    35    29    1
    36    10     4   ar
    37    12    16    1
    38    15    17    1
@<TRIPOS>MOLECULE
*****
 35 38 0 0 0
SMALL
GASTEIGER

@<TRIPOS>ATOM
      1 C         140.2546  138.8607  165.4769 C.ar    1  UNL1        0.0844
      2 C         138.8519  138.7848  166.0030 C.ar    1  UNL1        0.1147
      3 N         138.5329  139.3187  167.3679 N.ar    1  UNL1       -0.2425
      4 C         139.6166  139.9287  168.2068 C.ar    1  UNL1        0.0827
      5 C         139.2976  140.4627  169.5717 C.ar    1  UNL1        0.0214
      6 C         140.3812  141.0726  170.4105 C.ar    1  UNL1        0.0312
      7 C         141.7839  141.1486  169.8844 C.ar    1  UNL1        0.1403
      8 F         142.8676  141.7586  170.7233 F       1  UNL1       -0.2042
      9 C         142.1029  140.6147  168.5195 C.ar    1  UNL1        0.0324
     10 C         141.0193  140.0047  167.6807 C.ar    1  UNL1        0.0345
     11 C         141.3382  139.4707  166.3156 C.ar    1  UNL1        0.0646
     12 N         140.4568  138.5470  161.5258 N.am    1  UNL1       -0.2667
     13 C         140.1378  139.0810  162.8907 C.2     1  UNL1        0.3083
     14 O         139.3830  140.3693  163.0346 O.2     1  UNL1       -0.2521
     15 N         140.5736  138.3267  164.1118 N.am    1  UNL1       -0.2658
     16 H         140.9521  137.7014  161.4315 H       1  UNL1        0.1565
     17 H         141.0689  137.4812  164.0174 H       1  UNL1        0.1565
     18 C         139.1494  140.8097  157.8624 C.ar    1  UNL1        0.2359
     19 N         138.1465  140.0295  158.6597 N.ar    1  UNL1       -0.2081
     20 C         138.5823  139.2753  159.8808 C.ar    1  UNL1        0.1167
     21 C         140.0210  139.3012  160.3046 C.ar    1  UNL1        0.0720
     22 C         141.0238  140.0814  159.5074 C.ar    1  UNL1        0.0324
     23 C         140.5880  140.8356  158.2862 C.ar    1  UNL1        0.1120
     24 CL        141.5908  141.6158  157.4889 Cl      1  UNL1       -0.0773
     25 C         137.8262  142.7655  156.7787 C.3     1  UNL1        0.2543
     26 O         138.7136  141.5639  156.6412 O.3     1  UNL1       -0.4556
     27 N         142.7409  139.5467  165.7895 N.pl3   1  UNL1       -0.3050
     28 C         143.6855  138.4015  166.0042 C.3     1  UNL1        0.1122
     29 C         143.1989  140.7680  165.0487 C.3     1  UNL1        0.0889
     30 C         144.5847  140.8228  164.4772 C.3     1  UNL1        0.0226
     31 C         145.0427  142.0440  163.7364 C.3     1  UNL1        0.0191
     32 C         144.1149  143.2103  163.5670 C.3     1  UNL1        0.0722
     33 N         142.7291  143.1555  164.1385 N.3     1  UNL1       -0.2701
     34 C         141.8013  144.3220  163.9691 C.3     1  UNL1        0.0897
     35 C         142.2711  141.9343  164.8793 C.3     1  UNL1        0.0920
@<TRIPOS>BOND
     1    25    26    1
     2    26    18    1
     3    18    19   ar
     4    19    20   ar
     5    20    21   ar
     6    21    12    1
     7    12    13   am
     8    13    14    2
     9    13    15   am
    10    15     1    1
    11     1     2   ar
    12     2     3   ar
    13     3     4   ar
    14     4     5   ar
    15     5     6   ar
    16     6     7   ar
    17     7     8    1
    18     7     9   ar
    19     9    10   ar
    20    10    11   ar
    21    11    27    1
    22    27    28    1
    23    27    29    1
    24    29    30    1
    25    30    31    1
    26    31    32    1
    27    32    33    1
    28    33    34    1
    29    33    35    1
    30    21    22   ar
    31    22    23   ar
    32    23    24    1
    33    23    18   ar
    34    11     1   ar
    35    35    29    1
    36    10     4   ar
    37    12    16    1
    38    15    17    1
