@<TRIPOS>MOLECULE
*****
 28 30 0 0 0
SMALL
GASTEIGER

@<TRIPOS>ATOM
      1 C         139.4434  137.6945  163.6249 C.ar    1  UNL1        0.1393
      2 C         140.8520  137.3363  163.2541 C.ar    1  UNL1        0.0370
      3 C         141.9829  137.6914  164.1732 C.ar    1  UNL1        0.0063
      4 C         141.7052  138.4047  165.4632 C.ar    1  UNL1        0.0392
      5 C         140.2967  138.7630  165.8341 C.ar    1  UNL1        0.0063
      6 C         139.1658  138.4079  164.9149 C.ar    1  UNL1        0.0370
      7 C         142.8363  138.7599  166.3824 C.2     1  UNL1        0.1961
      8 O         144.0880  137.9333  166.3854 O.2     1  UNL1       -0.2866
      9 C         142.7155  139.9414  167.2984 C.ar    1  UNL1        0.0460
     10 C         142.3402  139.7401  168.7367 C.ar    1  UNL1        0.0151
     11 C         142.2195  140.9218  169.6528 C.ar    1  UNL1        0.0578
     12 CL        141.8441  140.7205  171.0910 Cl      1  UNL1       -0.0822
     13 C         142.4740  142.3047  169.1306 C.ar    1  UNL1        0.0119
     14 C         142.8494  142.5060  167.6923 C.ar    1  UNL1        0.0077
     15 C         142.9701  141.3244  166.7763 C.ar    1  UNL1        0.0377
     16 BR        143.3454  141.5257  165.3380 Br      1  UNL1       -0.0489
     17 O         138.3124  137.3394  162.7058 O.3     1  UNL1       -0.4656
     18 C         137.7469  138.3736  161.7781 C.3     1  UNL1        0.2897
     19 O         139.3564  140.3303  161.2029 O.2     1  UNL1       -0.2707
     20 C         138.1478  139.8117  161.9242 C.2     1  UNL1        0.2707
     21 N         137.3401  140.7311  162.7915 N.am    1  UNL1       -0.2796
     22 H         136.5468  140.3907  163.2649 H       1  UNL1        0.1550
     23 C         137.7410  142.1691  162.9375 C.ar    1  UNL1        0.0698
     24 C         137.7804  142.8025  164.2967 C.ar    1  UNL1        0.0178
     25 C         138.1814  144.2405  164.4427 C.ar    1  UNL1        0.0220
     26 C         138.5429  145.0452  163.2295 C.ar    1  UNL1        0.0990
     27 N         138.5036  144.4119  161.8704 N.ar    1  UNL1       -0.2410
     28 C         138.1026  142.9738  161.7243 C.ar    1  UNL1        0.1135
@<TRIPOS>BOND
     1    19    20    2
     2    20    18    1
     3    18    17    1
     4    17     1    1
     5     1     2   ar
     6     2     3   ar
     7     3     4   ar
     8     4     7    1
     9     7     8    2
    10     7     9    1
    11     9    10   ar
    12    10    11   ar
    13    11    12    1
    14    11    13   ar
    15    13    14   ar
    16    14    15   ar
    17    15    16    1
    18     4     5   ar
    19     5     6   ar
    20    20    21   am
    21    21    23    1
    22    23    24   ar
    23    24    25   ar
    24    25    26   ar
    25    26    27   ar
    26    27    28   ar
    27     6     1   ar
    28    28    23   ar
    29    15     9   ar
    30    21    22    1
@<TRIPOS>MOLECULE
*****
 28 30 0 0 0
SMALL
GASTEIGER

@<TRIPOS>ATOM
      1 C         138.5991  143.9009  163.4951 C.ar    1  UNL1        0.1393
      2 C         137.7760  142.7001  163.1337 C.ar    1  UNL1        0.0370
      3 C         137.8918  141.4410  163.9406 C.ar    1  UNL1        0.0063
      4 C         138.8308  141.3826  165.1089 C.ar    1  UNL1        0.0392
      5 C         139.6539  142.5833  165.4703 C.ar    1  UNL1        0.0063
      6 C         139.5381  143.8424  164.6635 C.ar    1  UNL1        0.0370
      7 C         138.9466  140.1234  165.9158 C.2     1  UNL1        0.1961
      8 O         137.9836  138.9959  165.6887 O.2     1  UNL1       -0.2866
      9 C         140.0253  139.9916  166.9497 C.ar    1  UNL1        0.0460
     10 C         139.7212  140.2744  168.3911 C.ar    1  UNL1        0.0151
     11 C         140.8000  140.1426  169.4250 C.ar    1  UNL1        0.0578
     12 CL        140.4960  140.4253  170.8664 Cl      1  UNL1       -0.0822
     13 C         142.1828  139.7281  169.0175 C.ar    1  UNL1        0.0119
     14 C         142.4869  139.4454  167.5761 C.ar    1  UNL1        0.0077
     15 C         141.4081  139.5771  166.5422 C.ar    1  UNL1        0.0377
     16 BR        141.7122  139.2944  165.1008 Br      1  UNL1       -0.0489
     17 O         138.4833  145.1601  162.6882 O.3     1  UNL1       -0.4656
     18 C         139.6882  145.7162  161.9889 C.3     1  UNL1        0.2897
     19 O         139.2918  144.1094  159.9861 O.2     1  UNL1       -0.2707
     20 C         140.1549  145.1071  160.7000 C.2     1  UNL1        0.2707
     21 N         141.4847  145.4957  160.1250 N.am    1  UNL1       -0.2796
     22 H         142.0512  146.1505  160.5936 H       1  UNL1        0.1550
     23 C         141.9514  144.8866  158.8362 C.ar    1  UNL1        0.0698
     24 C         142.6190  143.5433  158.8399 C.ar    1  UNL1        0.0178
     25 C         143.0857  142.9342  157.5510 C.ar    1  UNL1        0.0220
     26 C         142.8848  143.6683  156.2585 C.ar    1  UNL1        0.0990
     27 N         142.2172  145.0115  156.2547 N.ar    1  UNL1       -0.2410
     28 C         141.7504  145.6207  157.5436 C.ar    1  UNL1        0.1135
@<TRIPOS>BOND
     1    19    20    2
     2    20    18    1
     3    18    17    1
     4    17     1    1
     5     1     2   ar
     6     2     3   ar
     7     3     4   ar
     8     4     7    1
     9     7     8    2
    10     7     9    1
    11     9    10   ar
    12    10    11   ar
    13    11    12    1
    14    11    13   ar
    15    13    14   ar
    16    14    15   ar
    17    15    16    1
    18     4     5   ar
    19     5     6   ar
    20    20    21   am
    21    21    23    1
    22    23    24   ar
    23    24    25   ar
    24    25    26   ar
    25    26    27   ar
    26    27    28   ar
    27     6     1   ar
    28    28    23   ar
    29    15     9   ar
    30    21    22    1
@<TRIPOS>MOLECULE
*****
 28 30 0 0 0
SMALL
GASTEIGER

@<TRIPOS>ATOM
      1 C         138.3044  143.5476  163.5153 C.ar    1  UNL1        0.1393
      2 C         137.7184  142.2361  163.0835 C.ar    1  UNL1        0.0370
      3 C         137.9043  141.0151  163.9347 C.ar    1  UNL1        0.0063
      4 C         138.6761  141.1056  165.2177 C.ar    1  UNL1        0.0392
      5 C         139.2621  142.4171  165.6495 C.ar    1  UNL1        0.0063
      6 C         139.0762  143.6381  164.7983 C.ar    1  UNL1        0.0370
      7 C         138.8620  139.8845  166.0688 C.2     1  UNL1        0.1961
      8 O         137.9311  138.7177  165.9199 O.2     1  UNL1       -0.2866
      9 C         139.9786  139.8302  167.0688 C.ar    1  UNL1        0.0460
     10 C         139.7023  140.1048  168.5173 C.ar    1  UNL1        0.0151
     11 C         140.8190  140.0505  169.5174 C.ar    1  UNL1        0.0578
     12 CL        140.5427  140.3251  170.9659 Cl      1  UNL1       -0.0822
     13 C         142.2121  139.7216  169.0689 C.ar    1  UNL1        0.0119
     14 C         142.4884  139.4469  167.6203 C.ar    1  UNL1        0.0077
     15 C         141.3718  139.5012  166.6203 C.ar    1  UNL1        0.0377
     16 BR        141.6481  139.2266  165.1718 Br      1  UNL1       -0.0489
     17 O         138.1185  144.7688  162.6642 O.3     1  UNL1       -0.4656
     18 C         139.3136  145.4826  162.1056 C.3     1  UNL1        0.2897
     19 O         141.6755  145.6549  163.1744 O.2     1  UNL1       -0.2707
     20 C         140.6886  144.9210  162.3156 C.2     1  UNL1        0.2707
     21 N         141.0767  143.6254  161.6668 N.am    1  UNL1       -0.2796
     22 H         140.4290  143.1437  161.1032 H       1  UNL1        0.1550
     23 C         142.4516  143.0638  161.8768 C.ar    1  UNL1        0.0698
     24 C         142.7936  142.3803  163.1676 C.ar    1  UNL1        0.0178
     25 C         144.1685  141.8187  163.3776 C.ar    1  UNL1        0.0220
     26 C         145.2016  141.9406  162.2969 C.ar    1  UNL1        0.0990
     27 N         144.8597  142.6241  161.0061 N.ar    1  UNL1       -0.2410
     28 C         143.4847  143.1857  160.7961 C.ar    1  UNL1        0.1135
@<TRIPOS>BOND
     1    19    20    2
     2    20    18    1
     3    18    17    1
     4    17     1    1
     5     1     2   ar
     6     2     3   ar
     7     3     4   ar
     8     4     7    1
     9     7     8    2
    10     7     9    1
    11     9    10   ar
    12    10    11   ar
    13    11    12    1
    14    11    13   ar
    15    13    14   ar
    16    14    15   ar
    17    15    16    1
    18     4     5   ar
    19     5     6   ar
    20    20    21   am
    21    21    23    1
    22    23    24   ar
    23    24    25   ar
    24    25    26   ar
    25    26    27   ar
    26    27    28   ar
    27     6     1   ar
    28    28    23   ar
    29    15     9   ar
    30    21    22    1
@<TRIPOS>MOLECULE
*****
 28 30 0 0 0
SMALL
GASTEIGER

@<TRIPOS>ATOM
      1 C         138.6531  143.8618  163.5875 C.ar    1  UNL1        0.1393
      2 C         139.5702  143.8501  164.7744 C.ar    1  UNL1        0.0370
      3 C         139.6926  142.6141  165.6153 C.ar    1  UNL1        0.0063
      4 C         138.8979  141.3898  165.2693 C.ar    1  UNL1        0.0392
      5 C         137.9809  141.4015  164.0824 C.ar    1  UNL1        0.0063
      6 C         137.8585  142.6376  163.2415 C.ar    1  UNL1        0.0370
      7 C         139.0204  140.1537  166.1103 C.2     1  UNL1        0.1961
      8 O         137.8414  139.2420  166.2797 O.2     1  UNL1       -0.2866
      9 C         140.3218  139.8294  166.7819 C.ar    1  UNL1        0.0460
     10 C         141.4745  139.3120  165.9735 C.ar    1  UNL1        0.0151
     11 C         142.7760  138.9877  166.6451 C.ar    1  UNL1        0.0578
     12 CL        143.9287  138.4703  165.8367 Cl      1  UNL1       -0.0822
     13 C         142.9247  139.1808  168.1252 C.ar    1  UNL1        0.0119
     14 C         141.7720  139.6982  168.9336 C.ar    1  UNL1        0.0077
     15 C         140.4706  140.0225  168.2620 C.ar    1  UNL1        0.0377
     16 BR        139.3179  140.5399  169.0705 Br      1  UNL1       -0.0489
     17 O         138.5307  145.0979  162.7465 O.3     1  UNL1       -0.4656
     18 C         139.7379  145.6555  162.0525 C.3     1  UNL1        0.2897
     19 O         139.3046  144.0973  160.0191 O.2     1  UNL1       -0.2707
     20 C         140.1759  145.0860  160.7357 C.2     1  UNL1        0.2707
     21 N         141.4851  145.5050  160.1356 N.am    1  UNL1       -0.2796
     22 H         142.0570  146.1539  160.6059 H       1  UNL1        0.1550
     23 C         141.9231  144.9355  158.8189 C.ar    1  UNL1        0.0698
     24 C         142.5459  143.5721  158.7613 C.ar    1  UNL1        0.0178
     25 C         142.9839  143.0025  157.4446 C.ar    1  UNL1        0.0220
     26 C         142.7990  143.7963  156.1854 C.ar    1  UNL1        0.0990
     27 N         142.1762  145.1597  156.2429 N.ar    1  UNL1       -0.2410
     28 C         141.7383  145.7293  157.5596 C.ar    1  UNL1        0.1135
@<TRIPOS>BOND
     1    19    20    2
     2    20    18    1
     3    18    17    1
     4    17     1    1
     5     1     2   ar
     6     2     3   ar
     7     3     4   ar
     8     4     7    1
     9     7     8    2
    10     7     9    1
    11     9    10   ar
    12    10    11   ar
    13    11    12    1
    14    11    13   ar
    15    13    14   ar
    16    14    15   ar
    17    15    16    1
    18     4     5   ar
    19     5     6   ar
    20    20    21   am
    21    21    23    1
    22    23    24   ar
    23    24    25   ar
    24    25    26   ar
    25    26    27   ar
    26    27    28   ar
    27     6     1   ar
    28    28    23   ar
    29    15     9   ar
    30    21    22    1
@<TRIPOS>MOLECULE
*****
 28 30 0 0 0
SMALL
GASTEIGER

@<TRIPOS>ATOM
      1 C         141.0405  137.7471  162.8647 C.ar    1  UNL1        0.1393
      2 C         139.5753  138.0571  162.7825 C.ar    1  UNL1        0.0370
      3 C         138.8483  138.5702  163.9901 C.ar    1  UNL1        0.0063
      4 C         139.5867  138.7733  165.2799 C.ar    1  UNL1        0.0392
      5 C         141.0520  138.4633  165.3621 C.ar    1  UNL1        0.0063
      6 C         141.7789  137.9502  164.1545 C.ar    1  UNL1        0.0370
      7 C         138.8597  139.2865  166.4875 C.2     1  UNL1        0.1961
      8 O         137.4890  138.7714  166.8128 O.2     1  UNL1       -0.2866
      9 C         139.5035  140.3146  167.3698 C.ar    1  UNL1        0.0460
     10 C         139.8235  139.9834  168.7973 C.ar    1  UNL1        0.0151
     11 C         140.4672  141.0117  169.6796 C.ar    1  UNL1        0.0578
     12 CL        140.7873  140.6805  171.1072 Cl      1  UNL1       -0.0822
     13 C         140.7910  142.3710  169.1344 C.ar    1  UNL1        0.0119
     14 C         140.4710  142.7022  167.7068 C.ar    1  UNL1        0.0077
     15 C         139.8272  141.6740  166.8245 C.ar    1  UNL1        0.0377
     16 BR        139.5072  142.0052  165.3970 Br      1  UNL1       -0.0489
     17 O         141.7675  137.2340  161.6571 O.3     1  UNL1       -0.4656
     18 C         142.5812  138.1727  160.8165 C.3     1  UNL1        0.2897
     19 O         141.6188  140.5662  160.5078 O.2     1  UNL1       -0.2707
     20 C         142.6109  139.6368  161.1418 C.2     1  UNL1        0.2707
     21 N         143.6327  140.1713  162.1010 N.am    1  UNL1       -0.2796
     22 H         144.2838  139.5613  162.5171 H       1  UNL1        0.1550
     23 C         143.6623  141.6353  162.4263 C.ar    1  UNL1        0.0698
     24 C         142.7894  142.1788  163.5184 C.ar    1  UNL1        0.0178
     25 C         142.8191  143.6428  163.8436 C.ar    1  UNL1        0.0220
     26 C         143.7217  144.5633  163.0768 C.ar    1  UNL1        0.0990
     27 N         144.5946  144.0199  161.9848 N.ar    1  UNL1       -0.2410
     28 C         144.5649  142.5558  161.6595 C.ar    1  UNL1        0.1135
@<TRIPOS>BOND
     1    19    20    2
     2    20    18    1
     3    18    17    1
     4    17     1    1
     5     1     2   ar
     6     2     3   ar
     7     3     4   ar
     8     4     7    1
     9     7     8    2
    10     7     9    1
    11     9    10   ar
    12    10    11   ar
    13    11    12    1
    14    11    13   ar
    15    13    14   ar
    16    14    15   ar
    17    15    16    1
    18     4     5   ar
    19     5     6   ar
    20    20    21   am
    21    21    23    1
    22    23    24   ar
    23    24    25   ar
    24    25    26   ar
    25    26    27   ar
    26    27    28   ar
    27     6     1   ar
    28    28    23   ar
    29    15     9   ar
    30    21    22    1
@<TRIPOS>MOLECULE
*****
 28 30 0 0 0
SMALL
GASTEIGER

@<TRIPOS>ATOM
      1 C         144.6539  141.2426  162.6102 C.ar    1  UNL1        0.1393
      2 C         144.3099  139.7858  162.5149 C.ar    1  UNL1        0.0370
      3 C         143.8097  139.0526  163.7241 C.ar    1  UNL1        0.0063
      4 C         143.6536  139.7762  165.0287 C.ar    1  UNL1        0.0392
      5 C         143.9976  141.2331  165.1240 C.ar    1  UNL1        0.0063
      6 C         144.4977  141.9663  163.9148 C.ar    1  UNL1        0.0370
      7 C         143.1534  139.0430  166.2379 C.2     1  UNL1        0.1961
      8 O         144.0351  138.0443  166.9273 O.2     1  UNL1       -0.2866
      9 C         141.7716  139.3084  166.7577 C.ar    1  UNL1        0.0460
     10 C         140.5814  139.0828  165.8731 C.ar    1  UNL1        0.0151
     11 C         139.1996  139.3482  166.3930 C.ar    1  UNL1        0.0578
     12 CL        138.0093  139.1226  165.5085 Cl      1  UNL1       -0.0822
     13 C         139.0080  139.8393  167.7973 C.ar    1  UNL1        0.0119
     14 C         140.1983  140.0649  168.6818 C.ar    1  UNL1        0.0077
     15 C         141.5801  139.7995  168.1621 C.ar    1  UNL1        0.0377
     16 BR        142.7703  140.0251  169.0466 Br      1  UNL1       -0.0489
     17 O         145.1540  141.9759  161.4010 O.3     1  UNL1       -0.4656
     18 C         144.1890  142.7038  160.5128 C.3     1  UNL1        0.2897
     19 O         142.4005  144.4468  161.2292 O.2     1  UNL1       -0.2707
     20 C         142.8083  143.0206  161.0061 C.2     1  UNL1        0.2707
     21 N         141.8354  141.9114  161.2762 N.am    1  UNL1       -0.2796
     22 H         142.1030  140.9753  161.1297 H       1  UNL1        0.1550
     23 C         140.4547  142.2283  161.7694 C.ar    1  UNL1        0.0698
     24 C         140.0814  141.9365  163.1927 C.ar    1  UNL1        0.0178
     25 C         138.7007  142.2534  163.6859 C.ar    1  UNL1        0.0220
     26 C         137.6934  142.8620  162.7559 C.ar    1  UNL1        0.0990
     27 N         138.0667  143.1538  161.3328 N.ar    1  UNL1       -0.2410
     28 C         139.4474  142.8369  160.8395 C.ar    1  UNL1        0.1135
@<TRIPOS>BOND
     1    19    20    2
     2    20    18    1
     3    18    17    1
     4    17     1    1
     5     1     2   ar
     6     2     3   ar
     7     3     4   ar
     8     4     7    1
     9     7     8    2
    10     7     9    1
    11     9    10   ar
    12    10    11   ar
    13    11    12    1
    14    11    13   ar
    15    13    14   ar
    16    14    15   ar
    17    15    16    1
    18     4     5   ar
    19     5     6   ar
    20    20    21   am
    21    21    23    1
    22    23    24   ar
    23    24    25   ar
    24    25    26   ar
    25    26    27   ar
    26    27    28   ar
    27     6     1   ar
    28    28    23   ar
    29    15     9   ar
    30    21    22    1
@<TRIPOS>MOLECULE
*****
 28 30 0 0 0
SMALL
GASTEIGER

@<TRIPOS>ATOM
      1 C         144.7007  141.5324  163.0714 C.ar    1  UNL1        0.1393
      2 C         144.2154  142.2294  164.3077 C.ar    1  UNL1        0.0370
      3 C         143.7269  141.4279  165.4777 C.ar    1  UNL1        0.0063
      4 C         143.7237  139.9294  165.4113 C.ar    1  UNL1        0.0392
      5 C         144.2089  139.2323  164.1750 C.ar    1  UNL1        0.0063
      6 C         144.6974  140.0338  163.0050 C.ar    1  UNL1        0.0370
      7 C         143.2351  139.1278  166.5814 C.2     1  UNL1        0.1961
      8 O         143.9409  137.8629  166.9711 O.2     1  UNL1       -0.2866
      9 C         142.0408  139.5913  167.3617 C.ar    1  UNL1        0.0460
     10 C         142.2109  140.0958  168.7640 C.ar    1  UNL1        0.0151
     11 C         141.0165  140.5593  169.5443 C.ar    1  UNL1        0.0578
     12 CL        141.1865  141.0638  170.9467 Cl      1  UNL1       -0.0822
     13 C         139.6522  140.5181  168.9223 C.ar    1  UNL1        0.0119
     14 C         139.4822  140.0136  167.5200 C.ar    1  UNL1        0.0077
     15 C         140.6764  139.5502  166.7397 C.ar    1  UNL1        0.0377
     16 BR        140.5064  139.0456  165.3373 Br      1  UNL1       -0.0489
     17 O         145.1893  142.3339  161.9013 O.3     1  UNL1       -0.4656
     18 C         144.2106  142.8739  160.9011 C.3     1  UNL1        0.2897
     19 O         142.4532  144.6789  161.5364 O.2     1  UNL1       -0.2707
     20 C         142.8212  143.2391  161.3329 C.2     1  UNL1        0.2707
     21 N         141.8000  142.1645  161.5612 N.am    1  UNL1       -0.2796
     22 H         142.0415  141.2194  161.4276 H       1  UNL1        0.1550
     23 C         140.4107  142.5297  161.9929 C.ar    1  UNL1        0.0698
     24 C         140.0426  142.4915  163.4466 C.ar    1  UNL1        0.0178
     25 C         138.6534  142.8568  163.8784 C.ar    1  UNL1        0.0220
     26 C         137.6321  143.2602  162.8566 C.ar    1  UNL1        0.0990
     27 N         138.0001  143.2984  161.4029 N.ar    1  UNL1       -0.2410
     28 C         139.3894  142.9332  160.9711 C.ar    1  UNL1        0.1135
@<TRIPOS>BOND
     1    19    20    2
     2    20    18    1
     3    18    17    1
     4    17     1    1
     5     1     2   ar
     6     2     3   ar
     7     3     4   ar
     8     4     7    1
     9     7     8    2
    10     7     9    1
    11     9    10   ar
    12    10    11   ar
    13    11    12    1
    14    11    13   ar
    15    13    14   ar
    16    14    15   ar
    17    15    16    1
    18     4     5   ar
    19     5     6   ar
    20    20    21   am
    21    21    23    1
    22    23    24   ar
    23    24    25   ar
    24    25    26   ar
    25    26    27   ar
    26    27    28   ar
    27     6     1   ar
    28    28    23   ar
    29    15     9   ar
    30    21    22    1
@<TRIPOS>MOLECULE
*****
 28 30 0 0 0
SMALL
GASTEIGER

@<TRIPOS>ATOM
      1 C         138.0800  140.7860  161.5583 C.ar    1  UNL1        0.1393
      2 C         137.7112  141.3684  162.8905 C.ar    1  UNL1        0.0370
      3 C         138.0196  140.6143  164.1499 C.ar    1  UNL1        0.0063
      4 C         138.6969  139.2779  164.0772 C.ar    1  UNL1        0.0392
      5 C         139.0657  138.6956  162.7450 C.ar    1  UNL1        0.0063
      6 C         138.7573  139.4496  161.4855 C.ar    1  UNL1        0.0370
      7 C         139.0053  138.5239  165.3367 C.2     1  UNL1        0.1961
      8 O         138.5152  137.1165  165.5074 O.2     1  UNL1       -0.2866
      9 C         139.8039  139.1771  166.4255 C.ar    1  UNL1        0.0460
     10 C         139.1079  139.7600  167.6195 C.ar    1  UNL1        0.0151
     11 C         139.9066  140.4133  168.7083 C.ar    1  UNL1        0.0578
     12 CL        139.2105  140.9961  169.9024 Cl      1  UNL1       -0.0822
     13 C         141.4012  140.4837  168.6030 C.ar    1  UNL1        0.0119
     14 C         142.0972  139.9009  167.4089 C.ar    1  UNL1        0.0077
     15 C         141.2986  139.2476  166.3202 C.ar    1  UNL1        0.0377
     16 BR        141.9946  138.6648  165.1261 Br      1  UNL1       -0.0489
     17 O         137.7716  141.5401  160.2988 O.3     1  UNL1       -0.4656
     18 C         138.8581  142.2938  159.5907 C.3     1  UNL1        0.2897
     19 O         139.6513  144.6579  160.3202 O.2     1  UNL1       -0.2707
     20 C         139.7969  143.1659  160.3707 C.2     1  UNL1        0.2707
     21 N         140.8812  142.5458  161.2012 N.am    1  UNL1       -0.2796
     22 H         140.9768  141.5665  161.2343 H       1  UNL1        0.1550
     23 C         141.8200  143.4179  161.9811 C.ar    1  UNL1        0.0698
     24 C         141.3248  144.1657  163.1835 C.ar    1  UNL1        0.0178
     25 C         142.2635  145.0377  163.9634 C.ar    1  UNL1        0.0220
     26 C         143.6974  145.1620  163.5410 C.ar    1  UNL1        0.0990
     27 N         144.1926  144.4142  162.3387 N.ar    1  UNL1       -0.2410
     28 C         143.2539  143.5421  161.5587 C.ar    1  UNL1        0.1135
@<TRIPOS>BOND
     1    19    20    2
     2    20    18    1
     3    18    17    1
     4    17     1    1
     5     1     2   ar
     6     2     3   ar
     7     3     4   ar
     8     4     7    1
     9     7     8    2
    10     7     9    1
    11     9    10   ar
    12    10    11   ar
    13    11    12    1
    14    11    13   ar
    15    13    14   ar
    16    14    15   ar
    17    15    16    1
    18     4     5   ar
    19     5     6   ar
    20    20    21   am
    21    21    23    1
    22    23    24   ar
    23    24    25   ar
    24    25    26   ar
    25    26    27   ar
    26    27    28   ar
    27     6     1   ar
    28    28    23   ar
    29    15     9   ar
    30    21    22    1
@<TRIPOS>MOLECULE
*****
 28 30 0 0 0
SMALL
GASTEIGER

@<TRIPOS>ATOM
      1 C         138.9720  144.2484  163.6882 C.ar    1  UNL1        0.1393
      2 C         139.9526  144.0642  164.8083 C.ar    1  UNL1        0.0370
      3 C         139.9856  142.7733  165.5714 C.ar    1  UNL1        0.0063
      4 C         139.0381  141.6666  165.2145 C.ar    1  UNL1        0.0392
      5 C         138.0575  141.8508  164.0945 C.ar    1  UNL1        0.0063
      6 C         138.0245  143.1417  163.3313 C.ar    1  UNL1        0.0370
      7 C         139.0712  140.3756  165.9778 C.2     1  UNL1        0.1961
      8 O         138.0315  139.3255  165.7205 O.2     1  UNL1       -0.2866
      9 C         140.1439  140.1349  166.9982 C.ar    1  UNL1        0.0460
     10 C         139.8773  140.4160  168.4473 C.ar    1  UNL1        0.0151
     11 C         140.9501  140.1753  169.4677 C.ar    1  UNL1        0.0578
     12 CL        140.6835  140.4563  170.9168 Cl      1  UNL1       -0.0822
     13 C         142.2894  139.6535  169.0390 C.ar    1  UNL1        0.0119
     14 C         142.5560  139.3724  167.5899 C.ar    1  UNL1        0.0077
     15 C         141.4833  139.6131  166.5695 C.ar    1  UNL1        0.0377
     16 BR        141.7499  139.3320  165.1204 Br      1  UNL1       -0.0489
     17 O         138.9390  145.5393  162.9250 O.3     1  UNL1       -0.4656
     18 C         140.0330  145.8632  161.9513 C.3     1  UNL1        0.2897
     19 O         139.7511  143.8255  160.3642 O.2     1  UNL1       -0.2707
     20 C         140.6376  144.7756  161.1135 C.2     1  UNL1        0.2707
     21 N         142.1286  144.6381  161.0252 N.am    1  UNL1       -0.2796
     22 H         142.7105  145.2617  161.5170 H       1  UNL1        0.1550
     23 C         142.7332  143.5506  160.1875 C.ar    1  UNL1        0.0698
     24 C         143.2447  142.2994  160.8379 C.ar    1  UNL1        0.0178
     25 C         143.8492  141.2119  160.0002 C.ar    1  UNL1        0.0220
     26 C         143.9423  141.3755  158.5120 C.ar    1  UNL1        0.0990
     27 N         143.4309  142.6266  157.8616 N.ar    1  UNL1       -0.2410
     28 C         142.8263  143.7142  158.6993 C.ar    1  UNL1        0.1135
@<TRIPOS>BOND
     1    19    20    2
     2    20    18    1
     3    18    17    1
     4    17     1    1
     5     1     2   ar
     6     2     3   ar
     7     3     4   ar
     8     4     7    1
     9     7     8    2
    10     7     9    1
    11     9    10   ar
    12    10    11   ar
    13    11    12    1
    14    11    13   ar
    15    13    14   ar
    16    14    15   ar
    17    15    16    1
    18     4     5   ar
    19     5     6   ar
    20    20    21   am
    21    21    23    1
    22    23    24   ar
    23    24    25   ar
    24    25    26   ar
    25    26    27   ar
    26    27    28   ar
    27     6     1   ar
    28    28    23   ar
    29    15     9   ar
    30    21    22    1
