@<TRIPOS>MOLECULE
*****
 44 48 0 0 0
SMALL
GASTEIGER

@<TRIPOS>ATOM
      1 C         143.5850  139.5561  156.8379 C.ar    1  UNL1        0.1690
      2 C         142.9442  138.2493  157.2006 C.ar    1  UNL1        0.1754
      3 C         142.5986  137.9547  158.6303 C.ar    1  UNL1        0.0776
      4 C         142.8939  138.9670  159.6971 C.ar    1  UNL1        0.1512
      5 O         142.5483  138.6724  161.1267 O.2     1  UNL1       -0.4530
      6 C         142.8435  139.6847  162.1936 C.ar    1  UNL1        0.1543
      7 C         142.4980  139.3901  163.6232 C.ar    1  UNL1        0.0747
      8 C         142.7932  140.4024  164.6901 C.ar    1  UNL1        0.1445
      9 C         143.4340  141.7092  164.3274 C.ar    1  UNL1        0.0680
     10 C         143.7796  142.0037  162.8977 C.ar    1  UNL1        0.1478
     11 C         143.4843  140.9915  161.8309 C.ar    1  UNL1        0.1076
     12 C         143.8299  141.2860  160.4012 C.ar    1  UNL1        0.2042
     13 O         144.4707  142.5928  160.0384 O.2     1  UNL1       -0.2863
     14 C         143.5347  140.2738  159.3344 C.ar    1  UNL1        0.0731
     15 C         143.8802  140.5683  157.9048 C.ar    1  UNL1        0.0252
     16 C         143.7293  142.7214  165.3942 C.2     1  UNL1        0.0049
     17 C         143.3837  142.4269  166.8238 C.2     1  UNL1        0.0130
     18 C         142.7429  141.1200  167.1865 C.3     1  UNL1        0.1517
     19 C         142.1308  140.0338  168.0205 C.3     1  UNL1        0.0483
     20 C         142.8256  141.7551  168.5430 C.3     1  UNL1        0.0483
     21 O         142.4477  140.1078  166.1197 O.3     1  UNL1       -0.4783
     22 C         145.0847  139.1491  154.7559 C.3     1  UNL1        0.2526
     23 O         143.9305  139.8506  155.4083 O.3     1  UNL1       -0.4687
     24 O         142.6489  137.2370  156.1338 O.3     1  UNL1       -0.4675
     25 C         142.0080  135.9303  156.4966 C.3     1  UNL1        0.2321
     26 C         142.8027  134.6601  156.4264 C.ar    1  UNL1        0.0213
     27 C         142.7462  133.8071  155.1938 C.ar    1  UNL1        0.0016
     28 C         143.5409  132.5369  155.1236 C.ar    1  UNL1        0.0294
     29 C         144.3922  132.1196  156.2860 C.ar    1  UNL1        0.1401
     30 F         145.1870  130.8493  156.2159 F       1  UNL1       -0.2042
     31 C         144.4487  132.9725  157.5186 C.ar    1  UNL1        0.0294
     32 C         143.6540  134.2427  157.5888 C.ar    1  UNL1        0.0016
     33 O         144.4204  143.3105  162.5349 O.3     1  UNL1       -0.4703
     34 C         143.6358  144.5848  162.6381 C.3     1  UNL1        0.2318
     35 C         142.1633  144.5841  162.3524 C.2     1  UNL1        0.0218
     36 C         141.2012  145.1177  163.3721 C.2     1  UNL1        0.0142
     37 C         139.7287  145.1170  163.0863 C.2     1  UNL1        0.0727
     38 O         139.2224  145.5924  161.7568 O.co2   1  UNL1       -0.5446
     39 O         138.7624  144.6409  164.1302 O.co2   1  UNL1       -0.5446
     40 C         144.5210  141.8752  157.5420 C.3     1  UNL1        0.0550
     41 C         145.9718  141.9195  157.1633 C.2     1  UNL1       -0.0298
     42 C         146.3793  142.4314  155.8135 C.2     1  UNL1       -0.0475
     43 C         147.8300  142.4758  155.4348 C.3     1  UNL1        0.0260
     44 C         145.3360  142.8990  154.8425 C.3     1  UNL1        0.0260
@<TRIPOS>UNITY_ATOM_ATTR
38 1
charge -1
@<TRIPOS>BOND
     1    22    23    1
     2    23     1    1
     3     1     2   ar
     4     2    24    1
     5    24    25    1
     6    25    26    1
     7    26    27   ar
     8    27    28   ar
     9    28    29   ar
    10    29    30    1
    11    29    31   ar
    12    31    32   ar
    13     2     3   ar
    14     3     4   ar
    15     4     5   ar
    16     5     6   ar
    17     6     7   ar
    18     7     8   ar
    19     8     9   ar
    20     9    10   ar
    21    10    33    1
    22    33    34    1
    23    34    35    1
    24    35    36    2
    25    36    37    1
    26    37    38   ar
    27    37    39   ar
    28    10    11   ar
    29    11    12   ar
    30    12    13    2
    31    12    14   ar
    32    14    15   ar
    33    15    40    1
    34    40    41    1
    35    41    42    2
    36    42    43    1
    37    42    44    1
    38     9    16    1
    39    16    17    2
    40    17    18    1
    41    18    19    1
    42    18    20    1
    43    18    21    1
    44    15     1   ar
    45    32    26   ar
    46    14     4   ar
    47    11     6   ar
    48    21     8    1
@<TRIPOS>MOLECULE
*****
 44 48 0 0 0
SMALL
GASTEIGER

@<TRIPOS>ATOM
      1 C         143.1900  139.8972  157.9054 C.ar    1  UNL1        0.1690
      2 C         142.5828  138.5596  158.2089 C.ar    1  UNL1        0.1754
      3 C         142.2822  138.1770  159.6279 C.ar    1  UNL1        0.0776
      4 C         142.5887  139.1321  160.7432 C.ar    1  UNL1        0.1512
      5 O         142.2881  138.7495  162.1620 O.2     1  UNL1       -0.4530
      6 C         142.5946  139.7045  163.2774 C.ar    1  UNL1        0.1543
      7 C         142.2940  139.3220  164.6963 C.ar    1  UNL1        0.0747
      8 C         142.6005  140.2770  165.8116 C.ar    1  UNL1        0.1445
      9 C         143.2077  141.6146  165.5081 C.ar    1  UNL1        0.0680
     10 C         143.5083  141.9972  164.0891 C.ar    1  UNL1        0.1478
     11 C         143.2018  141.0421  162.9738 C.ar    1  UNL1        0.1076
     12 C         143.5024  141.4247  161.5549 C.ar    1  UNL1        0.2042
     13 O         144.1096  142.7623  161.2513 O.2     1  UNL1       -0.2863
     14 C         143.1959  140.4697  160.4396 C.ar    1  UNL1        0.0731
     15 C         143.4966  140.8522  159.0207 C.ar    1  UNL1        0.0252
     16 C         143.5142  142.5696  166.6234 C.2     1  UNL1        0.0049
     17 C         143.2136  142.1871  168.0422 C.2     1  UNL1        0.0130
     18 C         142.6064  140.8495  168.3458 C.3     1  UNL1        0.1517
     19 C         142.0370  139.7056  169.1315 C.3     1  UNL1        0.0483
     20 C         142.7152  141.4073  169.7340 C.3     1  UNL1        0.0483
     21 O         142.2998  139.8944  167.2305 O.3     1  UNL1       -0.4783
     22 C         144.8141  139.9223  155.8777 C.3     1  UNL1        0.2526
     23 O         143.4907  140.2798  156.4865 O.3     1  UNL1       -0.4687
     24 O         142.2763  137.6046  157.0936 O.3     1  UNL1       -0.4675
     25 C         143.3080  136.6081  156.6546 C.3     1  UNL1        0.2321
     26 C         142.9238  135.1733  156.4458 C.ar    1  UNL1        0.0213
     27 C         141.8152  134.8241  155.4975 C.ar    1  UNL1        0.0016
     28 C         141.4310  133.3892  155.2886 C.ar    1  UNL1        0.0294
     29 C         142.1554  132.3036  156.0280 C.ar    1  UNL1        0.1401
     30 F         141.7712  130.8687  155.8192 F       1  UNL1       -0.2042
     31 C         143.2639  132.6528  156.9763 C.ar    1  UNL1        0.0294
     32 C         143.6481  134.0876  157.1852 C.ar    1  UNL1        0.0016
     33 O         144.1155  143.3348  163.7856 O.3     1  UNL1       -0.4703
     34 C         143.3632  144.5911  164.1104 C.3     1  UNL1        0.2318
     35 C         142.3291  145.1136  163.1577 C.2     1  UNL1        0.0218
     36 C         140.8977  144.6871  163.2966 C.2     1  UNL1        0.0142
     37 C         139.8637  145.2097  162.3439 C.2     1  UNL1        0.0727
     38 O         139.9282  146.6325  161.8734 O.co2   1  UNL1       -0.5446
     39 O         138.7650  144.3093  161.8617 O.co2   1  UNL1       -0.5446
     40 C         144.1037  142.1898  158.7172 C.3     1  UNL1        0.0550
     41 C         143.5302  143.0434  157.6250 C.2     1  UNL1       -0.0298
     42 C         142.4293  144.0147  157.9322 C.2     1  UNL1       -0.0475
     43 C         141.8558  144.8682  156.8402 C.3     1  UNL1        0.0260
     44 C         141.9017  144.1325  159.3315 C.3     1  UNL1        0.0260
@<TRIPOS>UNITY_ATOM_ATTR
38 1
charge -1
@<TRIPOS>BOND
     1    22    23    1
     2    23     1    1
     3     1     2   ar
     4     2    24    1
     5    24    25    1
     6    25    26    1
     7    26    27   ar
     8    27    28   ar
     9    28    29   ar
    10    29    30    1
    11    29    31   ar
    12    31    32   ar
    13     2     3   ar
    14     3     4   ar
    15     4     5   ar
    16     5     6   ar
    17     6     7   ar
    18     7     8   ar
    19     8     9   ar
    20     9    10   ar
    21    10    33    1
    22    33    34    1
    23    34    35    1
    24    35    36    2
    25    36    37    1
    26    37    38   ar
    27    37    39   ar
    28    10    11   ar
    29    11    12   ar
    30    12    13    2
    31    12    14   ar
    32    14    15   ar
    33    15    40    1
    34    40    41    1
    35    41    42    2
    36    42    43    1
    37    42    44    1
    38     9    16    1
    39    16    17    2
    40    17    18    1
    41    18    19    1
    42    18    20    1
    43    18    21    1
    44    15     1   ar
    45    32    26   ar
    46    14     4   ar
    47    11     6   ar
    48    21     8    1
@<TRIPOS>MOLECULE
*****
 44 48 0 0 0
SMALL
GASTEIGER

@<TRIPOS>ATOM
      1 C         140.9016  138.4029  158.5231 C.ar    1  UNL1        0.1690
      2 C         142.2675  137.8249  158.7478 C.ar    1  UNL1        0.1754
      3 C         142.8428  137.7762  160.1323 C.ar    1  UNL1        0.0776
      4 C         142.0523  138.3054  161.2920 C.ar    1  UNL1        0.1512
      5 O         142.6277  138.2566  162.6764 O.2     1  UNL1       -0.4530
      6 C         141.8372  138.7858  163.8362 C.ar    1  UNL1        0.1543
      7 C         142.4125  138.7371  165.2206 C.ar    1  UNL1        0.0747
      8 C         141.6220  139.2663  166.3804 C.ar    1  UNL1        0.1445
      9 C         140.2562  139.8442  166.1558 C.ar    1  UNL1        0.0680
     10 C         139.6809  139.8930  164.7713 C.ar    1  UNL1        0.1478
     11 C         140.4713  139.3638  163.6116 C.ar    1  UNL1        0.1076
     12 C         139.8960  139.4125  162.2271 C.ar    1  UNL1        0.2042
     13 O         138.5302  139.9905  162.0024 O.2     1  UNL1       -0.2863
     14 C         140.6865  138.8833  161.0673 C.ar    1  UNL1        0.0731
     15 C         140.1111  138.9321  159.6830 C.ar    1  UNL1        0.0252
     16 C         139.4657  140.3734  167.3155 C.2     1  UNL1        0.0049
     17 C         140.0411  140.3247  168.6999 C.2     1  UNL1        0.0130
     18 C         141.4069  139.7467  168.9245 C.3     1  UNL1        0.1517
     19 C         142.6478  139.2985  169.6381 C.3     1  UNL1        0.0483
     20 C         141.0474  140.1203  170.3321 C.3     1  UNL1        0.0483
     21 O         142.1974  139.2175  167.7648 O.3     1  UNL1       -0.4783
     22 C         140.8701  139.4240  156.1344 C.3     1  UNL1        0.2526
     23 O         140.3263  138.4516  157.1388 O.3     1  UNL1       -0.4687
     24 O         143.0579  137.2957  157.5880 O.3     1  UNL1       -0.4675
     25 C         142.4869  136.2108  156.7238 C.3     1  UNL1        0.2321
     26 C         143.1537  134.8684  156.6666 C.ar    1  UNL1        0.0213
     27 C         143.1522  134.0842  155.3880 C.ar    1  UNL1        0.0016
     28 C         143.8191  132.7417  155.3308 C.ar    1  UNL1        0.0294
     29 C         144.4873  132.1836  156.5522 C.ar    1  UNL1        0.1401
     30 F         145.1541  130.8411  156.4951 F       1  UNL1       -0.2042
     31 C         144.4887  132.9678  157.8309 C.ar    1  UNL1        0.0294
     32 C         143.8219  134.3102  157.8881 C.ar    1  UNL1        0.0016
     33 O         138.3150  140.4709  164.5467 O.3     1  UNL1       -0.4703
     34 C         138.1105  141.9558  164.6026 C.3     1  UNL1        0.2318
     35 C         139.0332  142.8689  163.8510 C.2     1  UNL1        0.0218
     36 C         138.6292  144.2883  163.5826 C.2     1  UNL1        0.0142
     37 C         139.5519  145.2013  162.8309 C.2     1  UNL1        0.0727
     38 O         140.9860  145.3301  163.2511 O.co2   1  UNL1       -0.5446
     39 O         139.0403  145.9857  161.6590 O.co2   1  UNL1       -0.5446
     40 C         138.7453  139.5100  159.4583 C.3     1  UNL1        0.0550
     41 C         138.5261  140.5136  158.3652 C.2     1  UNL1       -0.0298
     42 C         138.7866  141.9687  158.6197 C.2     1  UNL1       -0.0475
     43 C         138.5674  142.9723  157.5267 C.3     1  UNL1        0.0260
     44 C         139.2663  142.4203  159.9674 C.3     1  UNL1        0.0260
@<TRIPOS>UNITY_ATOM_ATTR
38 1
charge -1
@<TRIPOS>BOND
     1    22    23    1
     2    23     1    1
     3     1     2   ar
     4     2    24    1
     5    24    25    1
     6    25    26    1
     7    26    27   ar
     8    27    28   ar
     9    28    29   ar
    10    29    30    1
    11    29    31   ar
    12    31    32   ar
    13     2     3   ar
    14     3     4   ar
    15     4     5   ar
    16     5     6   ar
    17     6     7   ar
    18     7     8   ar
    19     8     9   ar
    20     9    10   ar
    21    10    33    1
    22    33    34    1
    23    34    35    1
    24    35    36    2
    25    36    37    1
    26    37    38   ar
    27    37    39   ar
    28    10    11   ar
    29    11    12   ar
    30    12    13    2
    31    12    14   ar
    32    14    15   ar
    33    15    40    1
    34    40    41    1
    35    41    42    2
    36    42    43    1
    37    42    44    1
    38     9    16    1
    39    16    17    2
    40    17    18    1
    41    18    19    1
    42    18    20    1
    43    18    21    1
    44    15     1   ar
    45    32    26   ar
    46    14     4   ar
    47    11     6   ar
    48    21     8    1
@<TRIPOS>MOLECULE
*****
 44 48 0 0 0
SMALL
GASTEIGER

@<TRIPOS>ATOM
      1 C         140.1969  139.7129  165.6281 C.ar    1  UNL1        0.1690
      2 C         141.5619  139.1505  165.8936 C.ar    1  UNL1        0.1754
      3 C         142.3926  138.6303  164.7580 C.ar    1  UNL1        0.0776
      4 C         141.8583  138.6726  163.3571 C.ar    1  UNL1        0.1512
      5 O         142.6890  138.1524  162.2216 O.2     1  UNL1       -0.4530
      6 C         142.1547  138.1946  160.8206 C.ar    1  UNL1        0.1543
      7 C         142.9854  137.6745  159.6851 C.ar    1  UNL1        0.0747
      8 C         142.4511  137.7167  158.2841 C.ar    1  UNL1        0.1445
      9 C         141.0861  138.2791  158.0186 C.ar    1  UNL1        0.0680
     10 C         140.2554  138.7993  159.1542 C.ar    1  UNL1        0.1478
     11 C         140.7897  138.7571  160.5551 C.ar    1  UNL1        0.1076
     12 C         139.9590  139.2773  161.6907 C.ar    1  UNL1        0.2042
     13 O         138.5940  139.8397  161.4252 O.2     1  UNL1       -0.2863
     14 C         140.4933  139.2350  163.0916 C.ar    1  UNL1        0.0731
     15 C         139.6626  139.7552  164.2271 C.ar    1  UNL1        0.0252
     16 C         140.5518  138.3214  156.6177 C.2     1  UNL1        0.0049
     17 C         141.3825  137.8012  155.4822 C.2     1  UNL1        0.0130
     18 C         142.7475  137.2388  155.7477 C.3     1  UNL1        0.1517
     19 C         144.0886  136.6159  155.4962 C.3     1  UNL1        0.0483
     20 C         142.6789  137.0647  154.2594 C.3     1  UNL1        0.0483
     21 O         143.2818  137.1965  157.1486 O.3     1  UNL1       -0.4783
     22 C         138.5178  139.2910  167.5651 C.3     1  UNL1        0.2526
     23 O         139.3663  140.2331  166.7636 O.3     1  UNL1       -0.4687
     24 O         142.0962  139.1082  167.2945 O.3     1  UNL1       -0.4675
     25 C         142.6209  140.3590  167.9352 C.3     1  UNL1        0.2321
     26 C         141.7217  141.1938  168.7979 C.ar    1  UNL1        0.0213
     27 C         141.2535  142.5349  168.3161 C.ar    1  UNL1        0.0016
     28 C         140.3542  143.3698  169.1788 C.ar    1  UNL1        0.0294
     29 C         139.9231  142.8635  170.5234 C.ar    1  UNL1        0.1401
     30 F         139.0238  143.6984  171.3861 F       1  UNL1       -0.2042
     31 C         140.3913  141.5224  171.0052 C.ar    1  UNL1        0.0294
     32 C         141.2905  140.6875  170.1425 C.ar    1  UNL1        0.0016
     33 O         138.8904  139.3617  158.8887 O.3     1  UNL1       -0.4703
     34 C         138.7379  140.5962  158.0504 C.3     1  UNL1        0.2318
     35 C         139.0298  141.9441  158.6403 C.2     1  UNL1        0.0218
     36 C         140.4468  142.3510  158.9166 C.2     1  UNL1        0.0142
     37 C         140.7387  143.6990  159.5064 C.2     1  UNL1        0.0727
     38 O         142.1583  144.1555  159.6681 O.co2   1  UNL1       -0.5446
     39 O         139.6108  144.5904  159.9346 O.co2   1  UNL1       -0.5446
     40 C         138.2977  140.3176  163.9616 C.3     1  UNL1        0.0550
     41 C         137.8978  141.6318  164.5642 C.2     1  UNL1       -0.0298
     42 C         138.5316  142.9024  164.0806 C.2     1  UNL1       -0.0475
     43 C         138.1318  144.2166  164.6831 C.3     1  UNL1        0.0260
     44 C         139.5652  142.8588  162.9944 C.3     1  UNL1        0.0260
@<TRIPOS>UNITY_ATOM_ATTR
38 1
charge -1
@<TRIPOS>BOND
     1    22    23    1
     2    23     1    1
     3     1     2   ar
     4     2    24    1
     5    24    25    1
     6    25    26    1
     7    26    27   ar
     8    27    28   ar
     9    28    29   ar
    10    29    30    1
    11    29    31   ar
    12    31    32   ar
    13     2     3   ar
    14     3     4   ar
    15     4     5   ar
    16     5     6   ar
    17     6     7   ar
    18     7     8   ar
    19     8     9   ar
    20     9    10   ar
    21    10    33    1
    22    33    34    1
    23    34    35    1
    24    35    36    2
    25    36    37    1
    26    37    38   ar
    27    37    39   ar
    28    10    11   ar
    29    11    12   ar
    30    12    13    2
    31    12    14   ar
    32    14    15   ar
    33    15    40    1
    34    40    41    1
    35    41    42    2
    36    42    43    1
    37    42    44    1
    38     9    16    1
    39    16    17    2
    40    17    18    1
    41    18    19    1
    42    18    20    1
    43    18    21    1
    44    15     1   ar
    45    32    26   ar
    46    14     4   ar
    47    11     6   ar
    48    21     8    1
@<TRIPOS>MOLECULE
*****
 44 48 0 0 0
SMALL
GASTEIGER

@<TRIPOS>ATOM
      1 C         141.5353  139.0149  158.5005 C.ar    1  UNL1        0.1690
      2 C         142.5538  137.9561  158.8029 C.ar    1  UNL1        0.1754
      3 C         142.9413  137.6722  160.2240 C.ar    1  UNL1        0.0776
      4 C         142.3102  138.4471  161.3426 C.ar    1  UNL1        0.1512
      5 O         142.6977  138.1631  162.7635 O.2     1  UNL1       -0.4530
      6 C         142.0666  138.9380  163.8822 C.ar    1  UNL1        0.1543
      7 C         142.4540  138.6541  165.3032 C.ar    1  UNL1        0.0747
      8 C         141.8229  139.4290  166.4218 C.ar    1  UNL1        0.1445
      9 C         140.8044  140.4879  166.1194 C.ar    1  UNL1        0.0680
     10 C         140.4169  140.7718  164.6983 C.ar    1  UNL1        0.1478
     11 C         141.0480  139.9969  163.5798 C.ar    1  UNL1        0.1076
     12 C         140.6606  140.2808  162.1587 C.ar    1  UNL1        0.2042
     13 O         139.6421  141.3396  161.8563 O.2     1  UNL1       -0.2863
     14 C         141.2917  139.5059  161.0401 C.ar    1  UNL1        0.0731
     15 C         140.9042  139.7898  159.6192 C.ar    1  UNL1        0.0252
     16 C         140.1733  141.2627  167.2380 C.2     1  UNL1        0.0049
     17 C         140.5608  140.9788  168.6589 C.2     1  UNL1        0.0130
     18 C         141.5793  139.9200  168.9613 C.3     1  UNL1        0.1517
     19 C         142.4883  139.0220  169.7471 C.3     1  UNL1        0.0483
     20 C         141.2639  140.3830  170.3528 C.3     1  UNL1        0.0483
     21 O         142.2104  139.1451  167.8428 O.3     1  UNL1       -0.4783
     22 C         141.9516  140.2661  156.2620 C.3     1  UNL1        0.2526
     23 O         141.1479  139.2989  157.0795 O.3     1  UNL1       -0.4687
     24 O         143.1849  137.1812  157.6844 O.3     1  UNL1       -0.4675
     25 C         142.4376  136.0518  157.0394 C.3     1  UNL1        0.2321
     26 C         143.1225  134.7388  156.8009 C.ar    1  UNL1        0.0213
     27 C         143.0311  134.0784  155.4572 C.ar    1  UNL1        0.0016
     28 C         143.7160  132.7653  155.2187 C.ar    1  UNL1        0.0294
     29 C         144.4922  132.1127  156.3239 C.ar    1  UNL1        0.1401
     30 F         145.1771  130.7996  156.0854 F       1  UNL1       -0.2042
     31 C         144.5836  132.7731  157.6676 C.ar    1  UNL1        0.0294
     32 C         143.8988  134.0861  157.9061 C.ar    1  UNL1        0.0016
     33 O         139.3984  141.8306  164.3959 O.3     1  UNL1       -0.4703
     34 C         139.7747  143.2800  164.4833 C.3     1  UNL1        0.2318
     35 C         141.2198  143.6819  164.4694 C.2     1  UNL1        0.0218
     36 C         141.8739  144.0841  163.1809 C.2     1  UNL1        0.0142
     37 C         143.3190  144.4860  163.1669 C.2     1  UNL1        0.0727
     38 O         144.1923  144.1051  162.0084 O.co2   1  UNL1       -0.5446
     39 O         143.8909  145.2688  164.3116 O.co2   1  UNL1       -0.5446
     40 C         139.8857  140.8487  159.3168 C.3     1  UNL1        0.0550
     41 C         138.6055  140.4824  158.6259 C.2     1  UNL1       -0.0298
     42 C         138.0669  141.3565  157.5323 C.2     1  UNL1       -0.0475
     43 C         136.7868  140.9903  156.8415 C.3     1  UNL1        0.0260
     44 C         138.8083  142.5967  157.1296 C.3     1  UNL1        0.0260
@<TRIPOS>UNITY_ATOM_ATTR
38 1
charge -1
@<TRIPOS>BOND
     1    22    23    1
     2    23     1    1
     3     1     2   ar
     4     2    24    1
     5    24    25    1
     6    25    26    1
     7    26    27   ar
     8    27    28   ar
     9    28    29   ar
    10    29    30    1
    11    29    31   ar
    12    31    32   ar
    13     2     3   ar
    14     3     4   ar
    15     4     5   ar
    16     5     6   ar
    17     6     7   ar
    18     7     8   ar
    19     8     9   ar
    20     9    10   ar
    21    10    33    1
    22    33    34    1
    23    34    35    1
    24    35    36    2
    25    36    37    1
    26    37    38   ar
    27    37    39   ar
    28    10    11   ar
    29    11    12   ar
    30    12    13    2
    31    12    14   ar
    32    14    15   ar
    33    15    40    1
    34    40    41    1
    35    41    42    2
    36    42    43    1
    37    42    44    1
    38     9    16    1
    39    16    17    2
    40    17    18    1
    41    18    19    1
    42    18    20    1
    43    18    21    1
    44    15     1   ar
    45    32    26   ar
    46    14     4   ar
    47    11     6   ar
    48    21     8    1
@<TRIPOS>MOLECULE
*****
 44 48 0 0 0
SMALL
GASTEIGER

@<TRIPOS>ATOM
      1 C         142.0153  140.3707  165.0784 C.ar    1  UNL1        0.1690
      2 C         142.7853  141.6417  165.2827 C.ar    1  UNL1        0.1754
      3 C         142.7208  142.7313  164.2537 C.ar    1  UNL1        0.0776
      4 C         141.8864  142.5498  163.0205 C.ar    1  UNL1        0.1512
      5 O         141.8220  143.6394  161.9916 O.2     1  UNL1       -0.4530
      6 C         140.9876  143.4580  160.7583 C.ar    1  UNL1        0.1543
      7 C         140.9232  144.5475  159.7294 C.ar    1  UNL1        0.0747
      8 C         140.0888  144.3661  158.4961 C.ar    1  UNL1        0.1445
      9 C         139.3188  143.0951  158.2918 C.ar    1  UNL1        0.0680
     10 C         139.3833  142.0055  159.3208 C.ar    1  UNL1        0.1478
     11 C         140.2176  142.1870  160.5540 C.ar    1  UNL1        0.1076
     12 C         140.2821  141.0974  161.5830 C.ar    1  UNL1        0.2042
     13 O         139.5121  139.8264  161.3787 O.2     1  UNL1       -0.2863
     14 C         141.1165  141.2788  162.8162 C.ar    1  UNL1        0.0731
     15 C         141.1809  140.1893  163.8451 C.ar    1  UNL1        0.0252
     16 C         138.4844  142.9137  157.0586 C.2     1  UNL1        0.0049
     17 C         138.4200  144.0032  156.0297 C.2     1  UNL1        0.0130
     18 C         139.1900  145.2742  156.2340 C.3     1  UNL1        0.1517
     19 C         139.7360  146.6479  155.9792 C.3     1  UNL1        0.0483
     20 C         138.5452  145.5698  154.9123 C.3     1  UNL1        0.0483
     21 O         140.0243  145.4557  157.4672 O.3     1  UNL1       -0.4783
     22 C         143.2515  138.3452  166.1361 C.3     1  UNL1        0.2526
     23 O         142.0797  139.2812  166.1073 O.3     1  UNL1       -0.4687
     24 O         143.6197  141.8231  166.5159 O.3     1  UNL1       -0.4675
     25 C         143.0263  142.4642  167.7353 C.3     1  UNL1        0.2321
     26 C         142.1322  141.6697  168.6404 C.ar    1  UNL1        0.0213
     27 C         142.6454  140.4211  169.2943 C.ar    1  UNL1        0.0016
     28 C         141.7511  139.6266  170.1995 C.ar    1  UNL1        0.0294
     29 C         140.3438  140.0808  170.4507 C.ar    1  UNL1        0.1401
     30 F         139.4496  139.2863  171.3559 F       1  UNL1       -0.2042
     31 C         139.8306  141.3294  169.7968 C.ar    1  UNL1        0.0294
     32 C         140.7248  142.1239  168.8917 C.ar    1  UNL1        0.0016
     33 O         138.6133  140.7346  159.1165 O.3     1  UNL1       -0.4703
     34 C         139.0993  139.7134  158.1311 C.3     1  UNL1        0.2318
     35 C         140.5680  139.5700  157.8624 C.2     1  UNL1        0.0218
     36 C         141.4127  138.7080  158.7531 C.2     1  UNL1        0.0142
     37 C         142.8815  138.5646  158.4844 C.2     1  UNL1        0.0727
     38 O         143.8793  139.0373  159.4996 O.co2   1  UNL1       -0.5446
     39 O         143.3523  137.9483  157.2003 O.co2   1  UNL1       -0.5446
     40 C         140.4109  138.9183  163.6408 C.3     1  UNL1        0.0550
     41 C         139.6948  138.2815  164.7948 C.2     1  UNL1       -0.0298
     42 C         138.5536  138.9961  165.4559 C.2     1  UNL1       -0.0475
     43 C         137.8375  138.3593  166.6098 C.3     1  UNL1        0.0260
     44 C         138.1285  140.3475  164.9628 C.3     1  UNL1        0.0260
@<TRIPOS>UNITY_ATOM_ATTR
38 1
charge -1
@<TRIPOS>BOND
     1    22    23    1
     2    23     1    1
     3     1     2   ar
     4     2    24    1
     5    24    25    1
     6    25    26    1
     7    26    27   ar
     8    27    28   ar
     9    28    29   ar
    10    29    30    1
    11    29    31   ar
    12    31    32   ar
    13     2     3   ar
    14     3     4   ar
    15     4     5   ar
    16     5     6   ar
    17     6     7   ar
    18     7     8   ar
    19     8     9   ar
    20     9    10   ar
    21    10    33    1
    22    33    34    1
    23    34    35    1
    24    35    36    2
    25    36    37    1
    26    37    38   ar
    27    37    39   ar
    28    10    11   ar
    29    11    12   ar
    30    12    13    2
    31    12    14   ar
    32    14    15   ar
    33    15    40    1
    34    40    41    1
    35    41    42    2
    36    42    43    1
    37    42    44    1
    38     9    16    1
    39    16    17    2
    40    17    18    1
    41    18    19    1
    42    18    20    1
    43    18    21    1
    44    15     1   ar
    45    32    26   ar
    46    14     4   ar
    47    11     6   ar
    48    21     8    1
@<TRIPOS>MOLECULE
*****
 44 48 0 0 0
SMALL
GASTEIGER

@<TRIPOS>ATOM
      1 C         142.6009  143.3999  156.7794 C.ar    1  UNL1        0.1690
      2 C         143.9453  142.8099  157.0871 C.ar    1  UNL1        0.1754
      3 C         144.3119  142.4767  158.5030 C.ar    1  UNL1        0.0776
      4 C         143.3342  142.7336  159.6111 C.ar    1  UNL1        0.1512
      5 O         143.7008  142.4005  161.0269 O.2     1  UNL1       -0.4530
      6 C         142.7231  142.6574  162.1352 C.ar    1  UNL1        0.1543
      7 C         143.0897  142.3243  163.5510 C.ar    1  UNL1        0.0747
      8 C         142.1120  142.5812  164.6592 C.ar    1  UNL1        0.1445
      9 C         140.7676  143.1712  164.3516 C.ar    1  UNL1        0.0680
     10 C         140.4010  143.5043  162.9357 C.ar    1  UNL1        0.1478
     11 C         141.3787  143.2474  161.8275 C.ar    1  UNL1        0.1076
     12 C         141.0121  143.5805  160.4116 C.ar    1  UNL1        0.2042
     13 O         139.6678  144.1705  160.1039 O.2     1  UNL1       -0.2863
     14 C         141.9898  143.3236  159.3035 C.ar    1  UNL1        0.0731
     15 C         141.6232  143.6568  157.8876 C.ar    1  UNL1        0.0252
     16 C         139.7899  143.4281  165.4597 C.2     1  UNL1        0.0049
     17 C         140.1566  143.0949  166.8755 C.2     1  UNL1        0.0130
     18 C         141.5009  142.5049  167.1832 C.3     1  UNL1        0.1517
     19 C         142.6434  141.9355  167.9708 C.3     1  UNL1        0.0483
     20 C         140.9200  142.5641  168.5649 C.3     1  UNL1        0.0483
     21 O         142.4786  142.2481  166.0750 O.3     1  UNL1       -0.4783
     22 C         142.6998  145.0208  154.7515 C.3     1  UNL1        0.2526
     23 O         142.2343  143.7330  155.3636 O.3     1  UNL1       -0.4687
     24 O         144.9230  142.5530  155.9789 O.3     1  UNL1       -0.4675
     25 C         146.3336  142.1568  156.3001 C.3     1  UNL1        0.2321
     26 C         147.4391  142.4719  155.3365 C.ar    1  UNL1        0.0213
     27 C         148.7340  141.7182  155.4081 C.ar    1  UNL1        0.0016
     28 C         149.8395  142.0334  154.4444 C.ar    1  UNL1        0.0294
     29 C         149.6501  143.1024  153.4093 C.ar    1  UNL1        0.1401
     30 F         150.7556  143.4176  152.4456 F       1  UNL1       -0.2042
     31 C         148.3552  143.8561  153.3378 C.ar    1  UNL1        0.0294
     32 C         147.2497  143.5409  154.3014 C.ar    1  UNL1        0.0016
     33 O         139.0567  144.0943  162.6280 O.3     1  UNL1       -0.4703
     34 C         137.8251  143.2432  162.7210 C.3     1  UNL1        0.2318
     35 C         137.8716  141.8070  162.2909 C.2     1  UNL1        0.0218
     36 C         138.0494  140.7234  163.3128 C.2     1  UNL1        0.0142
     37 C         138.0960  139.2872  162.8827 C.2     1  UNL1        0.0727
     38 O         138.6464  138.2442  163.8096 O.co2   1  UNL1       -0.5446
     39 O         137.5922  138.8939  161.5256 O.co2   1  UNL1       -0.5446
     40 C         140.2789  144.2468  157.5800 C.3     1  UNL1        0.0550
     41 C         140.1584  145.7037  157.2438 C.2     1  UNL1       -0.0298
     42 C         139.2826  146.1412  156.1073 C.2     1  UNL1       -0.0475
     43 C         139.1621  147.5980  155.7711 C.3     1  UNL1        0.0260
     44 C         138.5274  145.1218  155.3070 C.3     1  UNL1        0.0260
@<TRIPOS>UNITY_ATOM_ATTR
38 1
charge -1
@<TRIPOS>BOND
     1    22    23    1
     2    23     1    1
     3     1     2   ar
     4     2    24    1
     5    24    25    1
     6    25    26    1
     7    26    27   ar
     8    27    28   ar
     9    28    29   ar
    10    29    30    1
    11    29    31   ar
    12    31    32   ar
    13     2     3   ar
    14     3     4   ar
    15     4     5   ar
    16     5     6   ar
    17     6     7   ar
    18     7     8   ar
    19     8     9   ar
    20     9    10   ar
    21    10    33    1
    22    33    34    1
    23    34    35    1
    24    35    36    2
    25    36    37    1
    26    37    38   ar
    27    37    39   ar
    28    10    11   ar
    29    11    12   ar
    30    12    13    2
    31    12    14   ar
    32    14    15   ar
    33    15    40    1
    34    40    41    1
    35    41    42    2
    36    42    43    1
    37    42    44    1
    38     9    16    1
    39    16    17    2
    40    17    18    1
    41    18    19    1
    42    18    20    1
    43    18    21    1
    44    15     1   ar
    45    32    26   ar
    46    14     4   ar
    47    11     6   ar
    48    21     8    1
@<TRIPOS>MOLECULE
*****
 44 48 0 0 0
SMALL
GASTEIGER

@<TRIPOS>ATOM
      1 C         139.2164  142.4236  158.8111 C.ar    1  UNL1        0.1690
      2 C         139.6822  143.8303  159.0438 C.ar    1  UNL1        0.1754
      3 C         140.0039  144.2935  160.4338 C.ar    1  UNL1        0.0776
      4 C         139.8598  143.3501  161.5910 C.ar    1  UNL1        0.1512
      5 O         140.1814  143.8133  162.9809 O.2     1  UNL1       -0.4530
      6 C         140.0373  142.8698  164.1381 C.ar    1  UNL1        0.1543
      7 C         140.3590  143.3331  165.5280 C.ar    1  UNL1        0.0747
      8 C         140.2149  142.3896  166.6853 C.ar    1  UNL1        0.1445
      9 C         139.7492  140.9829  166.4525 C.ar    1  UNL1        0.0680
     10 C         139.4275  140.5196  165.0625 C.ar    1  UNL1        0.1478
     11 C         139.5716  141.4631  163.9054 C.ar    1  UNL1        0.1076
     12 C         139.2499  140.9999  162.5154 C.ar    1  UNL1        0.2042
     13 O         138.7842  139.5931  162.2826 O.2     1  UNL1       -0.2863
     14 C         139.3940  141.9433  161.3582 C.ar    1  UNL1        0.0731
     15 C         139.0724  141.4801  159.9683 C.ar    1  UNL1        0.0252
     16 C         139.6051  140.0394  167.6096 C.2     1  UNL1        0.0049
     17 C         139.9267  140.5026  168.9995 C.2     1  UNL1        0.0130
     18 C         140.3925  141.9094  169.2323 C.3     1  UNL1        0.1517
     19 C         140.8652  143.1364  169.9541 C.3     1  UNL1        0.0483
     20 C         140.4126  141.3920  170.6401 C.3     1  UNL1        0.0483
     21 O         140.5366  142.8528  168.0752 O.3     1  UNL1       -0.4783
     22 C         137.5415  142.2324  156.8343 C.3     1  UNL1        0.2526
     23 O         138.8948  141.9603  157.4212 O.3     1  UNL1       -0.4687
     24 O         139.8263  144.7738  157.8867 O.3     1  UNL1       -0.4675
     25 C         141.1104  144.8210  157.1129 C.3     1  UNL1        0.2321
     26 C         142.0866  143.6863  157.2097 C.ar    1  UNL1        0.0213
     27 C         143.1300  143.6844  158.2873 C.ar    1  UNL1        0.0016
     28 C         144.1062  142.5496  158.3840 C.ar    1  UNL1        0.0294
     29 C         144.0389  141.4167  157.4032 C.ar    1  UNL1        0.1401
     30 F         145.0151  140.2819  157.4999 F       1  UNL1       -0.2042
     31 C         142.9955  141.4186  156.3256 C.ar    1  UNL1        0.0294
     32 C         142.0193  142.5534  156.2288 C.ar    1  UNL1        0.0016
     33 O         138.9617  139.1129  164.8297 O.3     1  UNL1       -0.4703
     34 C         139.9584  137.9937  164.7663 C.3     1  UNL1        0.2318
     35 C         141.3972  138.2871  164.4602 C.2     1  UNL1        0.0218
     36 C         141.9159  138.1204  163.0627 C.2     1  UNL1        0.0142
     37 C         143.3547  138.4138  162.7567 C.2     1  UNL1        0.0727
     38 O         144.0286  137.7371  161.6000 O.co2   1  UNL1       -0.5446
     39 O         144.1197  139.3840  163.6074 O.co2   1  UNL1       -0.5446
     40 C         138.6066  140.0733  159.7355 C.3     1  UNL1        0.0550
     41 C         139.2336  139.2451  158.6534 C.2     1  UNL1       -0.0298
     42 C         140.7198  139.0430  158.6296 C.2     1  UNL1       -0.0475
     43 C         141.3468  138.2147  157.5476 C.3     1  UNL1        0.0260
     44 C         141.5789  139.6692  159.6879 C.3     1  UNL1        0.0260
@<TRIPOS>UNITY_ATOM_ATTR
38 1
charge -1
@<TRIPOS>BOND
     1    22    23    1
     2    23     1    1
     3     1     2   ar
     4     2    24    1
     5    24    25    1
     6    25    26    1
     7    26    27   ar
     8    27    28   ar
     9    28    29   ar
    10    29    30    1
    11    29    31   ar
    12    31    32   ar
    13     2     3   ar
    14     3     4   ar
    15     4     5   ar
    16     5     6   ar
    17     6     7   ar
    18     7     8   ar
    19     8     9   ar
    20     9    10   ar
    21    10    33    1
    22    33    34    1
    23    34    35    1
    24    35    36    2
    25    36    37    1
    26    37    38   ar
    27    37    39   ar
    28    10    11   ar
    29    11    12   ar
    30    12    13    2
    31    12    14   ar
    32    14    15   ar
    33    15    40    1
    34    40    41    1
    35    41    42    2
    36    42    43    1
    37    42    44    1
    38     9    16    1
    39    16    17    2
    40    17    18    1
    41    18    19    1
    42    18    20    1
    43    18    21    1
    44    15     1   ar
    45    32    26   ar
    46    14     4   ar
    47    11     6   ar
    48    21     8    1
@<TRIPOS>MOLECULE
*****
 44 48 0 0 0
SMALL
GASTEIGER

@<TRIPOS>ATOM
      1 C         140.1554  139.0960  157.2943 C.ar    1  UNL1        0.1690
      2 C         141.4838  138.4133  157.4339 C.ar    1  UNL1        0.1754
      3 C         142.1126  138.2659  158.7877 C.ar    1  UNL1        0.0776
      4 C         141.4132  138.8011  160.0019 C.ar    1  UNL1        0.1512
      5 O         142.0420  138.6536  161.3557 O.2     1  UNL1       -0.4530
      6 C         141.3426  139.1888  162.5699 C.ar    1  UNL1        0.1543
      7 C         141.9714  139.0414  163.9237 C.ar    1  UNL1        0.0747
      8 C         141.2719  139.5766  165.1380 C.ar    1  UNL1        0.1445
      9 C         139.9436  140.2592  164.9984 C.ar    1  UNL1        0.0680
     10 C         139.3147  140.4067  163.6445 C.ar    1  UNL1        0.1478
     11 C         140.0142  139.8715  162.4303 C.ar    1  UNL1        0.1076
     12 C         139.3853  140.0189  161.0765 C.ar    1  UNL1        0.2042
     13 O         138.0570  140.7016  160.9369 O.2     1  UNL1       -0.2863
     14 C         140.0848  139.4837  159.8623 C.ar    1  UNL1        0.0731
     15 C         139.4559  139.6312  158.5085 C.ar    1  UNL1        0.0252
     16 C         139.2441  140.7944  166.2125 C.2     1  UNL1        0.0049
     17 C         139.8730  140.6470  167.5663 C.2     1  UNL1        0.0130
     18 C         141.2013  139.9643  167.7059 C.3     1  UNL1        0.1517
     19 C         142.4356  139.3995  168.3442 C.3     1  UNL1        0.0483
     20 C         140.9305  140.3034  169.1418 C.3     1  UNL1        0.0483
     21 O         141.9008  139.4291  166.4917 O.3     1  UNL1       -0.4783
     22 C         138.7960  138.0880  155.3231 C.3     1  UNL1        0.2526
     23 O         139.5266  139.2434  155.9405 O.3     1  UNL1       -0.4687
     24 O         142.1833  137.8781  156.2197 O.3     1  UNL1       -0.4675
     25 C         143.2247  136.8084  156.3647 C.3     1  UNL1        0.2321
     26 C         142.8413  135.3648  156.2272 C.ar    1  UNL1        0.0213
     27 C         143.4812  134.3318  157.1066 C.ar    1  UNL1        0.0016
     28 C         143.0977  132.8881  156.9691 C.ar    1  UNL1        0.0294
     29 C         142.0743  132.4775  155.9522 C.ar    1  UNL1        0.1401
     30 F         141.6908  131.0339  155.8146 F       1  UNL1       -0.2042
     31 C         141.4344  133.5106  155.0727 C.ar    1  UNL1        0.0294
     32 C         141.8179  134.9542  155.2102 C.ar    1  UNL1        0.0016
     33 O         137.9864  141.0893  163.5049 O.3     1  UNL1       -0.4703
     34 C         137.8584  142.5515  163.8140 C.3     1  UNL1        0.2318
     35 C         138.2586  143.5723  162.7903 C.2     1  UNL1        0.0218
     36 C         139.6551  144.1197  162.7831 C.2     1  UNL1        0.0142
     37 C         140.0552  145.1405  161.7594 C.2     1  UNL1        0.0727
     38 O         139.1252  146.2676  161.4208 O.co2   1  UNL1       -0.5446
     39 O         141.3855  145.0342  161.0744 O.co2   1  UNL1       -0.5446
     40 C         138.1276  140.3138  158.3689 C.3     1  UNL1        0.0550
     41 C         138.0436  141.6673  157.7278 C.2     1  UNL1       -0.0298
     42 C         137.0429  141.9209  156.6396 C.2     1  UNL1       -0.0475
     43 C         136.9589  143.2744  155.9984 C.3     1  UNL1        0.0260
     44 C         136.1261  140.8210  156.1925 C.3     1  UNL1        0.0260
@<TRIPOS>UNITY_ATOM_ATTR
38 1
charge -1
@<TRIPOS>BOND
     1    22    23    1
     2    23     1    1
     3     1     2   ar
     4     2    24    1
     5    24    25    1
     6    25    26    1
     7    26    27   ar
     8    27    28   ar
     9    28    29   ar
    10    29    30    1
    11    29    31   ar
    12    31    32   ar
    13     2     3   ar
    14     3     4   ar
    15     4     5   ar
    16     5     6   ar
    17     6     7   ar
    18     7     8   ar
    19     8     9   ar
    20     9    10   ar
    21    10    33    1
    22    33    34    1
    23    34    35    1
    24    35    36    2
    25    36    37    1
    26    37    38   ar
    27    37    39   ar
    28    10    11   ar
    29    11    12   ar
    30    12    13    2
    31    12    14   ar
    32    14    15   ar
    33    15    40    1
    34    40    41    1
    35    41    42    2
    36    42    43    1
    37    42    44    1
    38     9    16    1
    39    16    17    2
    40    17    18    1
    41    18    19    1
    42    18    20    1
    43    18    21    1
    44    15     1   ar
    45    32    26   ar
    46    14     4   ar
    47    11     6   ar
    48    21     8    1
