@<TRIPOS>MOLECULE
*****
 44 48 0 0 0
SMALL
GASTEIGER

@<TRIPOS>ATOM
      1 C         139.0655  138.5152  164.6134 C.3     1  UNL1        0.0546
      2 C         138.4019  138.9501  165.8863 C.3     1  UNL1        0.0180
      3 C         139.4751  139.3446  166.8572 C.3     1  UNL1        0.0311
      4 C         139.7283  139.8573  168.2439 C.3     1  UNL1        0.0973
      5 N         141.2117  139.9830  168.4280 N.am    1  UNL1       -0.2455
      6 C         141.9090  140.4600  169.6675 C.2     1  UNL1        0.4049
      7 O         143.4068  140.5330  169.7044 O.2     1  UNL1       -0.2262
      8 C         141.8753  139.5481  167.1550 C.3     1  UNL1        0.1053
      9 C         140.8020  139.1536  166.1842 C.3     1  UNL1        0.0903
     10 C         140.5488  138.6409  164.7975 C.3     1  UNL1        0.0261
     11 C         142.1289  138.9625  165.5112 C.2     1  UNL1        0.2267
     12 O         143.0350  137.8476  165.9426 O.2     1  UNL1       -0.2748
     13 N         142.5496  139.8862  164.4068 N.am    1  UNL1       -0.2750
     14 C         143.8765  139.6951  163.7338 C.3     1  UNL1        0.1000
     15 C         144.2972  140.6188  162.6294 C.3     1  UNL1        0.0670
     16 C         143.3910  141.7336  162.1980 C.ar    1  UNL1        0.0583
     17 N         143.8118  142.6574  161.0935 N.ar    1  UNL1       -0.2484
     18 C         142.9056  143.7722  160.6621 C.ar    1  UNL1        0.1023
     19 C         141.5787  143.9633  161.3352 C.ar    1  UNL1        0.0902
     20 C         141.1581  143.0395  162.4396 C.ar    1  UNL1        0.0040
     21 C         142.0642  141.9247  162.8710 C.ar    1  UNL1        0.0113
     22 C         141.6435  141.0010  163.9754 C.3     1  UNL1        0.1213
     23 C         140.6726  145.0781  160.9038 C.3     1  UNL1        0.4200
     24 F         139.7665  146.1929  160.4724 F       1  UNL1       -0.1658
     25 F         141.5486  145.3290  159.7123 F       1  UNL1       -0.1658
     26 F         139.7966  144.8271  162.0953 F       1  UNL1       -0.1658
     27 N         138.3681  138.0382  163.3738 N.3     1  UNL1       -0.2975
     28 H         138.6515  137.0688  163.2311 H       1  UNL1        0.1232
     29 C         138.0607  140.1414  161.8799 C.3     1  UNL1        0.1591
     30 C         138.2774  140.8522  160.5768 C.3     1  UNL1        0.1729
     31 O         139.0181  140.1705  159.4648 O.3     1  UNL1       -0.3511
     32 C         139.5422  138.7781  159.6557 C.3     1  UNL1        0.1437
     33 C         139.3256  138.0673  160.9588 C.3     1  UNL1        0.0503
     34 C         138.5848  138.7490  162.0708 C.3     1  UNL1        0.0865
     35 C         137.5183  142.2896  163.2367 C.3     1  UNL1        0.1742
     36 O         137.3200  140.8230  162.9919 O.3     1  UNL1       -0.3496
     37 O         141.1086  140.8640  170.8700 O.3     1  UNL1       -0.4327
     38 C         140.5866  142.2653  170.9873 C.3     1  UNL1        0.2313
     39 C         140.9118  143.2778  169.9294 C.3     1  UNL1        0.1373
     40 N         140.0498  143.3884  168.7068 N.am    1  UNL1       -0.3010
     41 C         140.6423  143.1582  167.3482 C.2     1  UNL1        0.2231
     42 C         139.7803  143.2688  166.1255 C.3     1  UNL1        0.0946
     43 O         142.0967  142.8175  167.2121 O.2     1  UNL1       -0.2751
     44 H         139.0952  143.6121  168.7961 H       1  UNL1        0.1495
@<TRIPOS>BOND
     1    35    36    1
     2    36    29    1
     3    29    30    1
     4    30    31    1
     5    31    32    1
     6    32    33    1
     7    33    34    1
     8    34    27    1
     9     1    27    1
    10     1     2    1
    11     3     2    1
    12     3     4    1
    13     4     5    1
    14     5     6   am
    15     6     7    2
    16     6    37    1
    17    37    38    1
    18    38    39    1
    19    39    40    1
    20    40    41   am
    21    41    42    1
    22    41    43    2
    23     5     8    1
    24     8     9    1
    25     9    11    1
    26    11    12    2
    27    11    13   am
    28    13    14    1
    29    14    15    1
    30    15    16    1
    31    16    17   ar
    32    17    18   ar
    33    18    19   ar
    34    19    23    1
    35    23    24    1
    36    23    25    1
    37    23    26    1
    38    19    20   ar
    39    20    21   ar
    40    21    22    1
    41     9    10    1
    42    34    29    1
    43    10     1    1
    44     9     3    1
    45    22    13    1
    46    21    16   ar
    47    27    28    1
    48    40    44    1
@<TRIPOS>MOLECULE
*****
 44 48 0 0 0
SMALL
GASTEIGER

@<TRIPOS>ATOM
      1 C         138.8408  141.6076  159.5458 C.3     1  UNL1        0.0546
      2 C         138.4005  140.2176  159.1939 C.3     1  UNL1        0.0180
      3 C         139.5523  139.5198  158.5334 C.3     1  UNL1        0.0311
      4 C         139.9920  138.2294  157.9076 C.3     1  UNL1        0.0973
      5 N         141.4160  138.3907  157.4646 N.am    1  UNL1       -0.2455
      6 C         142.2527  137.3453  156.7883 C.2     1  UNL1        0.4049
      7 O         143.6690  137.6530  156.4014 O.2     1  UNL1       -0.2262
      8 C         141.8564  139.7807  157.8165 C.3     1  UNL1        0.1053
      9 C         140.7046  140.4785  158.4771 C.3     1  UNL1        0.0903
     10 C         140.2648  141.7689  159.1028 C.3     1  UNL1        0.0261
     11 C         141.8567  141.4373  158.4208 C.2     1  UNL1        0.2267
     12 O         142.0335  142.3282  157.2270 O.2     1  UNL1       -0.2748
     13 N         142.8323  141.5052  159.5583 N.am    1  UNL1       -0.2750
     14 C         143.9845  142.4639  159.5020 C.3     1  UNL1        0.1000
     15 C         144.9599  142.5317  160.6394 C.3     1  UNL1        0.0670
     16 C         144.7832  141.6408  161.8332 C.ar    1  UNL1        0.0583
     17 N         145.7587  141.7087  162.9707 N.ar    1  UNL1       -0.2484
     18 C         145.5820  140.8177  164.1644 C.ar    1  UNL1        0.1023
     19 C         144.4297  139.8589  164.2207 C.ar    1  UNL1        0.0902
     20 C         143.4542  139.7911  163.0832 C.ar    1  UNL1        0.0040
     21 C         143.6310  140.6820  161.8895 C.ar    1  UNL1        0.0113
     22 C         142.6555  140.6142  160.7520 C.3     1  UNL1        0.1213
     23 C         144.2530  138.9680  165.4144 C.3     1  UNL1        0.4200
     24 F         144.0762  138.0771  166.6081 F       1  UNL1       -0.1658
     25 F         145.6943  138.5623  165.3249 F       1  UNL1       -0.1658
     26 F         142.8117  139.3738  165.5038 F       1  UNL1       -0.1658
     27 N         138.0041  142.6530  160.2221 N.3     1  UNL1       -0.2975
     28 H         138.2327  143.5438  159.7811 H       1  UNL1        0.1232
     29 C         138.7234  144.1246  162.2388 C.3     1  UNL1        0.1591
     30 C         138.8364  144.3331  163.7199 C.3     1  UNL1        0.1729
     31 O         138.3431  143.2784  164.6655 O.3     1  UNL1       -0.3511
     32 C         137.7368  142.0152  164.1300 C.3     1  UNL1        0.1437
     33 C         137.6238  141.8067  162.6489 C.3     1  UNL1        0.0503
     34 C         138.1171  142.8614  161.7032 C.3     1  UNL1        0.0865
     35 C         140.6256  145.1276  160.7807 C.3     1  UNL1        0.1742
     36 O         139.2167  145.1793  161.2931 O.3     1  UNL1       -0.3496
     37 O         141.6732  135.9924  156.4990 O.3     1  UNL1       -0.4327
     38 C         142.5794  134.8429  156.1714 C.3     1  UNL1        0.2313
     39 C         143.4811  134.2742  157.2267 C.3     1  UNL1        0.1373
     40 N         143.2889  132.8627  157.6964 N.am    1  UNL1       -0.3010
     41 C         144.1971  131.7770  157.2000 C.2     1  UNL1        0.2231
     42 C         144.0049  130.3654  157.6696 C.3     1  UNL1        0.0946
     43 O         145.2973  132.1028  156.2339 O.2     1  UNL1       -0.2751
     44 H         142.5668  132.6489  158.3304 H       1  UNL1        0.1495
@<TRIPOS>BOND
     1    35    36    1
     2    36    29    1
     3    29    30    1
     4    30    31    1
     5    31    32    1
     6    32    33    1
     7    33    34    1
     8    34    27    1
     9     1    27    1
    10     1     2    1
    11     3     2    1
    12     3     4    1
    13     4     5    1
    14     5     6   am
    15     6     7    2
    16     6    37    1
    17    37    38    1
    18    38    39    1
    19    39    40    1
    20    40    41   am
    21    41    42    1
    22    41    43    2
    23     5     8    1
    24     8     9    1
    25     9    11    1
    26    11    12    2
    27    11    13   am
    28    13    14    1
    29    14    15    1
    30    15    16    1
    31    16    17   ar
    32    17    18   ar
    33    18    19   ar
    34    19    23    1
    35    23    24    1
    36    23    25    1
    37    23    26    1
    38    19    20   ar
    39    20    21   ar
    40    21    22    1
    41     9    10    1
    42    34    29    1
    43    10     1    1
    44     9     3    1
    45    22    13    1
    46    21    16   ar
    47    27    28    1
    48    40    44    1
@<TRIPOS>MOLECULE
*****
 44 48 0 0 0
SMALL
GASTEIGER

@<TRIPOS>ATOM
      1 C         141.6192  143.8498  160.4842 C.3     1  UNL1        0.0546
      2 C         140.3246  144.3911  159.9542 C.3     1  UNL1        0.0180
      3 C         139.6795  143.3207  159.1247 C.3     1  UNL1        0.0311
      4 C         138.4807  142.9937  158.2845 C.3     1  UNL1        0.0973
      5 N         138.6357  141.5887  157.7826 N.am    1  UNL1       -0.2455
      6 C         137.6663  140.8540  156.9047 C.2     1  UNL1        0.4049
      7 O         137.9575  139.4449  156.4809 O.2     1  UNL1       -0.2262
      8 C         139.9303  141.0473  158.3126 C.3     1  UNL1        0.1053
      9 C         140.5754  142.1177  159.1421 C.3     1  UNL1        0.0903
     10 C         141.7742  142.4447  159.9823 C.3     1  UNL1        0.0261
     11 C         141.4713  140.9148  159.1595 C.2     1  UNL1        0.2267
     12 O         142.4535  140.6950  158.0473 O.2     1  UNL1       -0.2748
     13 N         141.3850  139.9316  160.2891 N.am    1  UNL1       -0.2750
     14 C         142.2809  138.7287  160.3065 C.3     1  UNL1        0.1000
     15 C         142.1945  137.7456  161.4361 C.3     1  UNL1        0.0670
     16 C         141.2123  137.9654  162.5483 C.ar    1  UNL1        0.0583
     17 N         141.1260  136.9822  163.6779 N.ar    1  UNL1       -0.2484
     18 C         140.1437  137.2020  164.7901 C.ar    1  UNL1        0.1023
     19 C         139.2478  138.4050  164.7726 C.ar    1  UNL1        0.0902
     20 C         139.3342  139.3881  163.6430 C.ar    1  UNL1        0.0040
     21 C         140.3164  139.1683  162.5309 C.ar    1  UNL1        0.0113
     22 C         140.4027  140.1514  161.4013 C.3     1  UNL1        0.1213
     23 C         138.2656  138.6248  165.8848 C.3     1  UNL1        0.4200
     24 F         137.2833  138.8446  166.9969 F       1  UNL1       -0.1658
     25 F         138.3605  140.1071  165.6757 F       1  UNL1       -0.1658
     26 F         138.1706  137.1425  166.0939 F       1  UNL1       -0.1658
     27 N         142.5886  144.5844  161.3621 N.3     1  UNL1       -0.2975
     28 H         143.3324  144.9293  160.7552 H       1  UNL1        0.1232
     29 C         142.6102  143.8596  163.8569 C.3     1  UNL1        0.1591
     30 C         143.2765  143.1489  164.9974 C.3     1  UNL1        0.1729
     31 O         144.5875  142.4521  164.7837 O.3     1  UNL1       -0.3511
     32 C         145.2323  142.4661  163.4294 C.3     1  UNL1        0.1437
     33 C         144.5660  143.1769  162.2888 C.3     1  UNL1        0.0503
     34 C         143.2549  143.8736  162.5026 C.3     1  UNL1        0.0865
     35 C         140.0159  143.7853  163.9768 C.3     1  UNL1        0.1742
     36 O         141.2992  144.5564  164.0706 O.3     1  UNL1       -0.3496
     37 O         136.4058  141.5285  156.4508 O.3     1  UNL1       -0.4327
     38 C         135.8584  141.2521  155.0818 C.3     1  UNL1        0.2313
     39 C         134.9796  140.0582  154.8525 C.3     1  UNL1        0.1373
     40 N         134.5900  139.1812  156.0052 N.am    1  UNL1       -0.3010
     41 C         133.4048  139.5385  156.8523 C.2     1  UNL1        0.2231
     42 C         133.0151  138.6614  158.0051 C.3     1  UNL1        0.0946
     43 O         132.6092  140.7728  156.5466 O.2     1  UNL1       -0.2751
     44 H         135.1122  138.3710  156.2059 H       1  UNL1        0.1495
@<TRIPOS>BOND
     1    35    36    1
     2    36    29    1
     3    29    30    1
     4    30    31    1
     5    31    32    1
     6    32    33    1
     7    33    34    1
     8    34    27    1
     9     1    27    1
    10     1     2    1
    11     3     2    1
    12     3     4    1
    13     4     5    1
    14     5     6   am
    15     6     7    2
    16     6    37    1
    17    37    38    1
    18    38    39    1
    19    39    40    1
    20    40    41   am
    21    41    42    1
    22    41    43    2
    23     5     8    1
    24     8     9    1
    25     9    11    1
    26    11    12    2
    27    11    13   am
    28    13    14    1
    29    14    15    1
    30    15    16    1
    31    16    17   ar
    32    17    18   ar
    33    18    19   ar
    34    19    23    1
    35    23    24    1
    36    23    25    1
    37    23    26    1
    38    19    20   ar
    39    20    21   ar
    40    21    22    1
    41     9    10    1
    42    34    29    1
    43    10     1    1
    44     9     3    1
    45    22    13    1
    46    21    16   ar
    47    27    28    1
    48    40    44    1
@<TRIPOS>MOLECULE
*****
 44 48 0 0 0
SMALL
GASTEIGER

@<TRIPOS>ATOM
      1 C         138.6383  141.9012  160.0373 C.3     1  UNL1        0.0546
      2 C         138.1008  140.9245  159.0337 C.3     1  UNL1        0.0180
      3 C         139.2127  139.9930  158.6518 C.3     1  UNL1        0.0311
      4 C         139.5678  138.8137  157.7956 C.3     1  UNL1        0.0973
      5 N         141.0120  138.4858  158.0340 N.am    1  UNL1       -0.2455
      6 C         141.7833  137.3761  157.3830 C.2     1  UNL1        0.4049
      7 O         143.2296  137.1685  157.7223 O.2     1  UNL1       -0.2262
      8 C         141.5495  139.4625  159.0375 C.3     1  UNL1        0.1053
      9 C         140.4376  140.3940  159.4194 C.3     1  UNL1        0.0903
     10 C         140.0825  141.5733  160.2756 C.3     1  UNL1        0.0261
     11 C         141.6623  140.7950  160.1869 C.2     1  UNL1        0.2267
     12 O         142.8488  141.3605  159.4641 O.2     1  UNL1       -0.2748
     13 N         141.7006  140.6305  161.6775 N.am    1  UNL1       -0.2750
     14 C         142.9254  141.0315  162.4450 C.3     1  UNL1        0.1000
     15 C         142.9636  140.8670  163.9354 C.3     1  UNL1        0.0670
     16 C         141.7772  140.3016  164.6583 C.ar    1  UNL1        0.0583
     17 N         141.8155  140.1371  166.1488 N.ar    1  UNL1       -0.2484
     18 C         140.6291  139.5716  166.8717 C.ar    1  UNL1        0.1023
     19 C         139.4043  139.1706  166.1041 C.ar    1  UNL1        0.0902
     20 C         139.3660  139.3351  164.6137 C.ar    1  UNL1        0.0040
     21 C         140.5525  139.9006  163.8908 C.ar    1  UNL1        0.0113
     22 C         140.5142  140.0651  162.4003 C.3     1  UNL1        0.1213
     23 C         138.2178  138.6051  166.8270 C.3     1  UNL1        0.4200
     24 F         137.0314  138.0397  167.5498 F       1  UNL1       -0.1658
     25 F         138.0101  137.6198  165.7152 F       1  UNL1       -0.1658
     26 F         138.4256  139.5905  167.9387 F       1  UNL1       -0.1658
     27 N         137.8671  143.0110  160.6882 N.3     1  UNL1       -0.2975
     28 H         138.0941  143.8653  160.1793 H       1  UNL1        0.1232
     29 C         138.7458  144.5783  162.5647 C.3     1  UNL1        0.1591
     30 C         138.9450  144.8760  164.0213 C.3     1  UNL1        0.1729
     31 O         138.4646  143.9042  165.0580 O.3     1  UNL1       -0.3511
     32 C         137.7850  142.6346  164.6381 C.3     1  UNL1        0.1437
     33 C         137.5858  142.3368  163.1815 C.3     1  UNL1        0.0503
     34 C         138.0662  143.3087  162.1448 C.3     1  UNL1        0.0865
     35 C         140.5792  145.3739  160.9047 C.3     1  UNL1        0.1742
     36 O         139.2262  145.5501  161.5280 O.3     1  UNL1       -0.3496
     37 O         141.1082  136.4740  156.3928 O.3     1  UNL1       -0.4327
     38 C         141.9117  135.8088  155.3149 C.3     1  UNL1        0.2313
     39 C         142.4694  134.4338  155.5354 C.3     1  UNL1        0.1373
     40 N         143.2971  134.1465  156.7528 N.am    1  UNL1       -0.3010
     41 C         144.2024  132.9509  156.7791 C.2     1  UNL1        0.2231
     42 C         145.0302  132.6635  157.9966 C.3     1  UNL1        0.0946
     43 O         144.2800  132.0425  155.5879 O.2     1  UNL1       -0.2751
     44 H         143.2462  134.7427  157.5347 H       1  UNL1        0.1495
@<TRIPOS>BOND
     1    35    36    1
     2    36    29    1
     3    29    30    1
     4    30    31    1
     5    31    32    1
     6    32    33    1
     7    33    34    1
     8    34    27    1
     9     1    27    1
    10     1     2    1
    11     3     2    1
    12     3     4    1
    13     4     5    1
    14     5     6   am
    15     6     7    2
    16     6    37    1
    17    37    38    1
    18    38    39    1
    19    39    40    1
    20    40    41   am
    21    41    42    1
    22    41    43    2
    23     5     8    1
    24     8     9    1
    25     9    11    1
    26    11    12    2
    27    11    13   am
    28    13    14    1
    29    14    15    1
    30    15    16    1
    31    16    17   ar
    32    17    18   ar
    33    18    19   ar
    34    19    23    1
    35    23    24    1
    36    23    25    1
    37    23    26    1
    38    19    20   ar
    39    20    21   ar
    40    21    22    1
    41     9    10    1
    42    34    29    1
    43    10     1    1
    44     9     3    1
    45    22    13    1
    46    21    16   ar
    47    27    28    1
    48    40    44    1
@<TRIPOS>MOLECULE
*****
 44 48 0 0 0
SMALL
GASTEIGER

@<TRIPOS>ATOM
      1 C         138.2916  139.9068  160.1481 C.3     1  UNL1        0.0546
      2 C         137.8577  141.0456  159.2736 C.3     1  UNL1        0.0180
      3 C         138.9773  141.3535  158.3240 C.3     1  UNL1        0.0311
      4 C         139.4011  142.2476  157.1966 C.3     1  UNL1        0.0973
      5 N         140.7889  141.8517  156.7875 N.am    1  UNL1       -0.2455
      6 C         141.6003  142.4836  155.6955 C.2     1  UNL1        0.4049
      7 O         142.9810  141.9782  155.3987 O.2     1  UNL1       -0.2262
      8 C         141.2228  140.7129  157.6621 C.3     1  UNL1        0.1053
      9 C         140.1032  140.4050  158.6117 C.3     1  UNL1        0.0903
     10 C         139.6794  139.5110  159.7391 C.3     1  UNL1        0.0261
     11 C         141.2291  139.4566  158.8994 C.2     1  UNL1        0.2267
     12 O         141.3169  138.1518  158.1646 O.2     1  UNL1       -0.2748
     13 N         142.2672  139.8128  159.9220 N.am    1  UNL1       -0.2750
     14 C         143.3930  138.8644  160.2097 C.3     1  UNL1        0.1000
     15 C         144.4310  139.2207  161.2322 C.3     1  UNL1        0.0670
     16 C         144.3432  140.5255  161.9670 C.ar    1  UNL1        0.0583
     17 N         145.3812  140.8817  162.9895 N.ar    1  UNL1       -0.2484
     18 C         145.2934  142.1865  163.7243 C.ar    1  UNL1        0.1023
     19 C         144.1674  143.1350  163.4365 C.ar    1  UNL1        0.0902
     20 C         143.1294  142.7787  162.4140 C.ar    1  UNL1        0.0040
     21 C         143.2173  141.4739  161.6792 C.ar    1  UNL1        0.0113
     22 C         142.1793  141.1176  160.6567 C.3     1  UNL1        0.1213
     23 C         144.0796  144.4397  164.1713 C.3     1  UNL1        0.4200
     24 F         143.9917  145.7445  164.9060 F       1  UNL1       -0.1658
     25 F         144.7547  143.8173  165.3573 F       1  UNL1       -0.1658
     26 F         143.4044  145.0622  162.9852 F       1  UNL1       -0.1658
     27 N         137.4802  139.2749  161.2401 N.3     1  UNL1       -0.2975
     28 H         136.5645  139.7238  161.2239 H       1  UNL1        0.1232
     29 C         137.7527  140.5662  163.4780 C.3     1  UNL1        0.1591
     30 C         138.2355  140.6183  164.8972 C.3     1  UNL1        0.1729
     31 O         138.9288  139.4314  165.4977 O.3     1  UNL1       -0.3511
     32 C         139.1392  138.1923  164.6790 C.3     1  UNL1        0.1437
     33 C         138.6563  138.1401  163.2598 C.3     1  UNL1        0.0503
     34 C         137.9631  139.3271  162.6593 C.3     1  UNL1        0.0865
     35 C         137.8103  143.0353  162.6717 C.3     1  UNL1        0.1742
     36 O         137.0595  141.7531  162.8775 O.3     1  UNL1       -0.3496
     37 O         141.0309  143.6210  154.9004 O.3     1  UNL1       -0.4327
     38 C         141.4419  145.0305  155.2075 C.3     1  UNL1        0.2313
     39 C         142.0562  145.3602  156.5356 C.3     1  UNL1        0.1373
     40 N         141.2038  145.3900  157.7695 N.am    1  UNL1       -0.3010
     41 C         141.6604  144.6873  159.0136 C.2     1  UNL1        0.2231
     42 C         140.8080  144.7171  160.2476 C.3     1  UNL1        0.0946
     43 O         142.9694  143.9549  159.0238 O.2     1  UNL1       -0.2751
     44 H         140.3447  145.8707  157.7628 H       1  UNL1        0.1495
@<TRIPOS>BOND
     1    35    36    1
     2    36    29    1
     3    29    30    1
     4    30    31    1
     5    31    32    1
     6    32    33    1
     7    33    34    1
     8    34    27    1
     9     1    27    1
    10     1     2    1
    11     3     2    1
    12     3     4    1
    13     4     5    1
    14     5     6   am
    15     6     7    2
    16     6    37    1
    17    37    38    1
    18    38    39    1
    19    39    40    1
    20    40    41   am
    21    41    42    1
    22    41    43    2
    23     5     8    1
    24     8     9    1
    25     9    11    1
    26    11    12    2
    27    11    13   am
    28    13    14    1
    29    14    15    1
    30    15    16    1
    31    16    17   ar
    32    17    18   ar
    33    18    19   ar
    34    19    23    1
    35    23    24    1
    36    23    25    1
    37    23    26    1
    38    19    20   ar
    39    20    21   ar
    40    21    22    1
    41     9    10    1
    42    34    29    1
    43    10     1    1
    44     9     3    1
    45    22    13    1
    46    21    16   ar
    47    27    28    1
    48    40    44    1
@<TRIPOS>MOLECULE
*****
 44 48 0 0 0
SMALL
GASTEIGER

@<TRIPOS>ATOM
      1 C         139.4429  143.2507  159.7437 C.3     1  UNL1        0.0546
      2 C         140.2949  143.2362  158.5092 C.3     1  UNL1        0.0180
      3 C         140.2108  141.8663  157.9041 C.3     1  UNL1        0.0311
      4 C         140.6854  141.0106  156.7671 C.3     1  UNL1        0.0973
      5 N         140.0748  139.6496  156.9250 N.am    1  UNL1       -0.2455
      6 C         140.2802  138.4795  156.0090 C.2     1  UNL1        0.4049
      7 O         139.6001  137.1738  156.2963 O.2     1  UNL1       -0.2262
      8 C         139.2229  139.6641  158.1594 C.3     1  UNL1        0.1053
      9 C         139.3069  141.0340  158.7646 C.3     1  UNL1        0.0903
     10 C         138.8323  141.8897  159.9015 C.3     1  UNL1        0.0261
     11 C         138.4030  140.2019  159.6251 C.2     1  UNL1        0.2267
     12 O         136.9697  139.9999  159.2316 O.2     1  UNL1       -0.2748
     13 N         138.9324  139.5717  160.8791 N.am    1  UNL1       -0.2750
     14 C         138.0286  138.7395  161.7396 C.3     1  UNL1        0.1000
     15 C         138.5580  138.1093  162.9936 C.3     1  UNL1        0.0670
     16 C         139.9913  138.3113  163.3871 C.ar    1  UNL1        0.0583
     17 N         140.5207  137.6811  164.6412 N.ar    1  UNL1       -0.2484
     18 C         141.9540  137.8830  165.0347 C.ar    1  UNL1        0.1023
     19 C         142.8579  138.7152  164.1741 C.ar    1  UNL1        0.0902
     20 C         142.3285  139.3454  162.9201 C.ar    1  UNL1        0.0040
     21 C         140.8952  139.1434  162.5266 C.ar    1  UNL1        0.0113
     22 C         140.3657  139.7736  161.2726 C.3     1  UNL1        0.1213
     23 C         144.2912  138.9172  164.5676 C.3     1  UNL1        0.4200
     24 F         145.7245  139.1191  164.9611 F       1  UNL1       -0.1658
     25 F         144.5920  139.4506  163.1983 F       1  UNL1       -0.1658
     26 F         143.9904  138.3838  165.9369 F       1  UNL1       -0.1658
     27 N         139.2376  144.4208  160.6596 N.3     1  UNL1       -0.2975
     28 H         139.9552  145.1070  160.4261 H       1  UNL1        0.1232
     29 C         140.6146  144.1086  162.8405 C.3     1  UNL1        0.1591
     30 C         140.6673  143.9156  164.3271 C.3     1  UNL1        0.1729
     31 O         139.3959  143.8419  165.1194 O.3     1  UNL1       -0.3511
     32 C         138.0715  143.9612  164.4251 C.3     1  UNL1        0.1437
     33 C         138.0187  144.1541  162.9385 C.3     1  UNL1        0.0503
     34 C         139.2903  144.2278  162.1462 C.3     1  UNL1        0.0865
     35 C         142.6609  142.9317  161.7554 C.3     1  UNL1        0.1742
     36 O         141.8861  144.1823  162.0482 O.3     1  UNL1       -0.3496
     37 O         141.1656  138.6152  154.8059 O.3     1  UNL1       -0.4327
     38 C         142.5991  138.1793  154.8768 C.3     1  UNL1        0.2313
     39 C         143.2190  137.8523  156.2031 C.3     1  UNL1        0.1373
     40 N         143.6503  138.9567  157.1219 N.am    1  UNL1       -0.3010
     41 C         143.1600  138.9875  158.5392 C.2     1  UNL1        0.2231
     42 C         143.5913  140.0919  159.4582 C.3     1  UNL1        0.0946
     43 O         142.2384  137.9141  159.0375 O.2     1  UNL1       -0.2751
     44 H         144.2552  139.6612  156.7949 H       1  UNL1        0.1495
@<TRIPOS>BOND
     1    35    36    1
     2    36    29    1
     3    29    30    1
     4    30    31    1
     5    31    32    1
     6    32    33    1
     7    33    34    1
     8    34    27    1
     9     1    27    1
    10     1     2    1
    11     3     2    1
    12     3     4    1
    13     4     5    1
    14     5     6   am
    15     6     7    2
    16     6    37    1
    17    37    38    1
    18    38    39    1
    19    39    40    1
    20    40    41   am
    21    41    42    1
    22    41    43    2
    23     5     8    1
    24     8     9    1
    25     9    11    1
    26    11    12    2
    27    11    13   am
    28    13    14    1
    29    14    15    1
    30    15    16    1
    31    16    17   ar
    32    17    18   ar
    33    18    19   ar
    34    19    23    1
    35    23    24    1
    36    23    25    1
    37    23    26    1
    38    19    20   ar
    39    20    21   ar
    40    21    22    1
    41     9    10    1
    42    34    29    1
    43    10     1    1
    44     9     3    1
    45    22    13    1
    46    21    16   ar
    47    27    28    1
    48    40    44    1
@<TRIPOS>MOLECULE
*****
 44 48 0 0 0
SMALL
GASTEIGER

@<TRIPOS>ATOM
      1 C         138.0644  140.6278  156.8012 C.3     1  UNL1        0.0546
      2 C         137.7232  142.0203  157.2423 C.3     1  UNL1        0.0180
      3 C         138.8576  142.5324  158.0794 C.3     1  UNL1        0.0311
      4 C         139.3479  143.7094  158.8694 C.3     1  UNL1        0.0973
      5 N         140.6932  143.3609  159.4341 N.am    1  UNL1       -0.2455
      6 C         141.5473  144.2490  160.2896 C.2     1  UNL1        0.4049
      7 O         142.8770  143.7611  160.7834 O.2     1  UNL1       -0.2262
      8 C         141.0343  141.9684  158.9930 C.3     1  UNL1        0.1053
      9 C         139.8999  141.4563  158.1558 C.3     1  UNL1        0.0903
     10 C         139.4097  140.2792  157.3658 C.3     1  UNL1        0.0261
     11 C         140.9422  140.3803  158.2322 C.2     1  UNL1        0.2267
     12 O         141.8648  140.1461  157.0729 O.2     1  UNL1       -0.2748
     13 N         141.0618  139.5383  159.4679 N.am    1  UNL1       -0.2750
     14 C         142.1040  138.4623  159.5443 C.3     1  UNL1        0.1000
     15 C         142.2236  137.6204  160.7799 C.3     1  UNL1        0.0670
     16 C         141.3010  137.8545  161.9392 C.ar    1  UNL1        0.0583
     17 N         141.4206  137.0125  163.1749 N.ar    1  UNL1       -0.2484
     18 C         140.4980  137.2466  164.3341 C.ar    1  UNL1        0.1023
     19 C         139.4557  138.3227  164.2577 C.ar    1  UNL1        0.0902
     20 C         139.3361  139.1646  163.0221 C.ar    1  UNL1        0.0040
     21 C         140.2588  138.9305  161.8628 C.ar    1  UNL1        0.0113
     22 C         140.1392  139.7724  160.6272 C.3     1  UNL1        0.1213
     23 C         138.5331  138.5569  165.4170 C.3     1  UNL1        0.4200
     24 F         137.6104  138.7910  166.5763 F       1  UNL1       -0.1658
     25 F         138.3420  137.0764  165.5639 F       1  UNL1       -0.1658
     26 F         138.7242  140.0374  165.2701 F       1  UNL1       -0.1658
     27 N         137.2102  139.7397  155.9457 N.3     1  UNL1       -0.2975
     28 H         137.8152  139.3640  155.2155 H       1  UNL1        0.1232
     29 C         134.6893  140.3665  155.9874 C.3     1  UNL1        0.1591
     30 C         133.4781  140.9255  155.3013 C.3     1  UNL1        0.1729
     31 O         133.5768  141.4166  153.8875 O.3     1  UNL1       -0.3511
     32 C         134.8867  141.3488  153.1596 C.3     1  UNL1        0.1437
     33 C         136.0979  140.7898  153.8457 C.3     1  UNL1        0.0503
     34 C         135.9991  140.2987  155.2596 C.3     1  UNL1        0.0865
     35 C         133.3550  139.1608  157.8625 C.3     1  UNL1        0.1742
     36 O         134.5906  139.8754  157.4013 O.3     1  UNL1       -0.3496
     37 O         141.0718  145.6248  160.6511 O.3     1  UNL1       -0.4327
     38 C         140.4868  145.8837  162.0079 C.3     1  UNL1        0.2313
     39 C         139.0226  145.6632  162.2479 C.3     1  UNL1        0.1373
     40 N         138.4532  144.2768  162.1879 N.am    1  UNL1       -0.3010
     41 C         137.9177  143.6316  163.4316 C.2     1  UNL1        0.2231
     42 C         137.3482  142.2451  163.3716 C.3     1  UNL1        0.0946
     43 O         137.9516  144.3727  164.7352 O.2     1  UNL1       -0.2751
     44 H         138.4309  143.7904  161.3322 H       1  UNL1        0.1495
@<TRIPOS>BOND
     1    35    36    1
     2    36    29    1
     3    29    30    1
     4    30    31    1
     5    31    32    1
     6    32    33    1
     7    33    34    1
     8    34    27    1
     9     1    27    1
    10     1     2    1
    11     3     2    1
    12     3     4    1
    13     4     5    1
    14     5     6   am
    15     6     7    2
    16     6    37    1
    17    37    38    1
    18    38    39    1
    19    39    40    1
    20    40    41   am
    21    41    42    1
    22    41    43    2
    23     5     8    1
    24     8     9    1
    25     9    11    1
    26    11    12    2
    27    11    13   am
    28    13    14    1
    29    14    15    1
    30    15    16    1
    31    16    17   ar
    32    17    18   ar
    33    18    19   ar
    34    19    23    1
    35    23    24    1
    36    23    25    1
    37    23    26    1
    38    19    20   ar
    39    20    21   ar
    40    21    22    1
    41     9    10    1
    42    34    29    1
    43    10     1    1
    44     9     3    1
    45    22    13    1
    46    21    16   ar
    47    27    28    1
    48    40    44    1
@<TRIPOS>MOLECULE
*****
 44 48 0 0 0
SMALL
GASTEIGER

@<TRIPOS>ATOM
      1 C         142.4404  138.3505  158.2406 C.3     1  UNL1        0.0546
      2 C         142.7516  139.7732  157.8816 C.3     1  UNL1        0.0180
      3 C         141.7247  140.6510  158.5334 C.3     1  UNL1        0.0311
      4 C         141.2824  142.0728  158.7145 C.3     1  UNL1        0.0973
      5 N         140.0630  142.0713  159.5881 N.am    1  UNL1       -0.2455
      6 C         139.2906  143.2804  160.0260 C.2     1  UNL1        0.4049
      7 O         138.0851  143.1225  160.9046 O.2     1  UNL1       -0.2262
      8 C         139.7518  140.6486  159.9470 C.3     1  UNL1        0.1053
      9 C         140.7787  139.7708  159.2952 C.3     1  UNL1        0.0903
     10 C         141.2210  138.3490  159.1142 C.3     1  UNL1        0.0261
     11 C         139.8328  138.8905  160.0570 C.2     1  UNL1        0.2267
     12 O         138.8879  137.9891  159.3189 O.2     1  UNL1       -0.2748
     13 N         139.8317  138.9116  161.5569 N.am    1  UNL1       -0.2750
     14 C         138.8858  138.0313  162.3186 C.3     1  UNL1        0.1000
     15 C         138.8847  138.0525  163.8185 C.3     1  UNL1        0.0670
     16 C         139.8295  138.9538  164.5565 C.ar    1  UNL1        0.0583
     17 N         139.8284  138.9749  166.0564 N.ar    1  UNL1       -0.2484
     18 C         140.7733  139.8763  166.7945 C.ar    1  UNL1        0.1023
     19 C         141.7192  140.7566  166.0327 C.ar    1  UNL1        0.0902
     20 C         141.7203  140.7355  164.5329 C.ar    1  UNL1        0.0040
     21 C         140.7755  139.8341  163.7948 C.ar    1  UNL1        0.0113
     22 C         140.7765  139.8130  162.2950 C.3     1  UNL1        0.1213
     23 C         142.6641  141.6580  166.7707 C.3     1  UNL1        0.4200
     24 F         143.6089  142.5594  167.5088 F       1  UNL1       -0.1658
     25 F         142.3698  142.7622  165.7990 F       1  UNL1       -0.1658
     26 F         142.9584  140.5539  167.7425 F       1  UNL1       -0.1658
     27 N         143.2128  137.1414  157.8027 N.3     1  UNL1       -0.2975
     28 H         144.0799  137.4809  157.3863 H       1  UNL1        0.1232
     29 C         142.8995  134.7129  156.9346 C.3     1  UNL1        0.1591
     30 C         142.2955  133.7516  155.9542 C.3     1  UNL1        0.1729
     31 O         141.4010  134.2575  154.8616 O.3     1  UNL1       -0.3511
     32 C         141.1104  135.7249  154.7493 C.3     1  UNL1        0.1437
     33 C         141.7144  136.6862  155.7297 C.3     1  UNL1        0.0503
     34 C         142.6089  136.1801  156.8223 C.3     1  UNL1        0.0865
     35 C         144.6214  132.9749  157.8089 C.3     1  UNL1        0.1742
     36 O         143.7940  134.2069  158.0272 O.3     1  UNL1       -0.3496
     37 O         139.7236  144.6471  159.5852 O.3     1  UNL1       -0.4327
     38 C         140.4745  145.5372  160.5306 C.3     1  UNL1        0.2313
     39 C         139.7386  146.2787  161.6070 C.3     1  UNL1        0.1373
     40 N         138.7714  145.5505  162.4926 N.am    1  UNL1       -0.3010
     41 C         139.2589  144.8752  163.7400 C.2     1  UNL1        0.2231
     42 C         138.2917  144.1469  164.6256 C.3     1  UNL1        0.0946
     43 O         140.7137  144.9281  164.1019 O.2     1  UNL1       -0.2751
     44 H         137.8166  145.5158  162.2550 H       1  UNL1        0.1495
@<TRIPOS>BOND
     1    35    36    1
     2    36    29    1
     3    29    30    1
     4    30    31    1
     5    31    32    1
     6    32    33    1
     7    33    34    1
     8    34    27    1
     9     1    27    1
    10     1     2    1
    11     3     2    1
    12     3     4    1
    13     4     5    1
    14     5     6   am
    15     6     7    2
    16     6    37    1
    17    37    38    1
    18    38    39    1
    19    39    40    1
    20    40    41   am
    21    41    42    1
    22    41    43    2
    23     5     8    1
    24     8     9    1
    25     9    11    1
    26    11    12    2
    27    11    13   am
    28    13    14    1
    29    14    15    1
    30    15    16    1
    31    16    17   ar
    32    17    18   ar
    33    18    19   ar
    34    19    23    1
    35    23    24    1
    36    23    25    1
    37    23    26    1
    38    19    20   ar
    39    20    21   ar
    40    21    22    1
    41     9    10    1
    42    34    29    1
    43    10     1    1
    44     9     3    1
    45    22    13    1
    46    21    16   ar
    47    27    28    1
    48    40    44    1
@<TRIPOS>MOLECULE
*****
 44 48 0 0 0
SMALL
GASTEIGER

@<TRIPOS>ATOM
      1 C         144.1066  142.4795  159.9681 C.3     1  UNL1        0.0546
      2 C         143.9272  141.4317  158.9099 C.3     1  UNL1        0.0180
      3 C         142.7744  141.8418  158.0422 C.3     1  UNL1        0.0311
      4 C         141.9510  141.4478  156.8520 C.3     1  UNL1        0.0973
      5 N         140.9091  142.5055  156.6384 N.am    1  UNL1       -0.2455
      6 C         139.8701  142.5139  155.5564 C.2     1  UNL1        0.4049
      7 O         138.8890  143.6451  155.4676 O.2     1  UNL1       -0.2262
      8 C         141.0885  143.5533  157.6967 C.3     1  UNL1        0.1053
      9 C         142.2413  143.1432  158.5643 C.3     1  UNL1        0.0903
     10 C         143.0647  143.5372  159.7546 C.3     1  UNL1        0.0261
     11 C         141.7082  144.4444  159.0863 C.2     1  UNL1        0.2267
     12 O         142.0310  145.7259  158.3767 O.2     1  UNL1       -0.2748
     13 N         140.8524  144.4642  160.3181 N.am    1  UNL1       -0.2750
     14 C         140.3194  145.7654  160.8402 C.3     1  UNL1        0.1000
     15 C         139.4636  145.7852  162.0719 C.3     1  UNL1        0.0670
     16 C         139.1409  144.5037  162.7816 C.ar    1  UNL1        0.0583
     17 N         138.2851  144.5235  164.0134 N.ar    1  UNL1       -0.2484
     18 C         137.9624  143.2420  164.7231 C.ar    1  UNL1        0.1023
     19 C         138.4955  141.9407  164.2010 C.ar    1  UNL1        0.0902
     20 C         139.3512  141.9210  162.9692 C.ar    1  UNL1        0.0040
     21 C         139.6740  143.2025  162.2596 C.ar    1  UNL1        0.0113
     22 C         140.5297  143.1827  161.0278 C.3     1  UNL1        0.1213
     23 C         138.1728  140.6592  164.9107 C.3     1  UNL1        0.4200
     24 F         137.8500  139.3777  165.6203 F       1  UNL1       -0.1658
     25 F         138.9110  141.1446  166.1229 F       1  UNL1       -0.1658
     26 F         137.4345  140.1738  163.6985 F       1  UNL1       -0.1658
     27 N         145.1456  142.4711  161.0501 N.3     1  UNL1       -0.2975
     28 H         145.8955  141.8564  160.7335 H       1  UNL1        0.1232
     29 C         144.2244  143.0205  163.4164 C.3     1  UNL1        0.1591
     30 C         143.8596  142.5798  164.8030 C.3     1  UNL1        0.1729
     31 O         144.0513  141.1489  165.2099 O.3     1  UNL1       -0.3511
     32 C         144.6078  140.1586  164.2303 C.3     1  UNL1        0.1437
     33 C         144.9726  140.5993  162.8436 C.3     1  UNL1        0.0503
     34 C         144.7808  142.0303  162.4367 C.3     1  UNL1        0.0865
     35 C         142.8820  145.2403  163.5607 C.3     1  UNL1        0.1742
     36 O         144.0326  144.4515  163.0094 O.3     1  UNL1       -0.3496
     37 O         139.8123  141.3912  154.5634 O.3     1  UNL1       -0.4327
     38 C         138.9443  140.1975  154.8307 C.3     1  UNL1        0.2313
     39 C         138.1751  140.1019  156.1150 C.3     1  UNL1        0.1373
     40 N         138.8301  139.5391  157.3414 N.am    1  UNL1       -0.3010
     41 C         138.8300  140.3247  158.6192 C.2     1  UNL1        0.2231
     42 C         139.4851  139.7618  159.8457 C.3     1  UNL1        0.0946
     43 O         138.1750  141.6731  158.6706 O.2     1  UNL1       -0.2751
     44 H         139.2601  138.6541  157.3077 H       1  UNL1        0.1495
@<TRIPOS>BOND
     1    35    36    1
     2    36    29    1
     3    29    30    1
     4    30    31    1
     5    31    32    1
     6    32    33    1
     7    33    34    1
     8    34    27    1
     9     1    27    1
    10     1     2    1
    11     3     2    1
    12     3     4    1
    13     4     5    1
    14     5     6   am
    15     6     7    2
    16     6    37    1
    17    37    38    1
    18    38    39    1
    19    39    40    1
    20    40    41   am
    21    41    42    1
    22    41    43    2
    23     5     8    1
    24     8     9    1
    25     9    11    1
    26    11    12    2
    27    11    13   am
    28    13    14    1
    29    14    15    1
    30    15    16    1
    31    16    17   ar
    32    17    18   ar
    33    18    19   ar
    34    19    23    1
    35    23    24    1
    36    23    25    1
    37    23    26    1
    38    19    20   ar
    39    20    21   ar
    40    21    22    1
    41     9    10    1
    42    34    29    1
    43    10     1    1
    44     9     3    1
    45    22    13    1
    46    21    16   ar
    47    27    28    1
    48    40    44    1
