@<TRIPOS>MOLECULE
*****
 38 43 0 0 0
SMALL
GASTEIGER

@<TRIPOS>ATOM
      1 C         140.9598  144.9697  159.2321 C.3     1  UNL1        0.0294
      2 C         140.3178  145.5768  160.4443 C.3     1  UNL1        0.0730
      3 C         141.7974  141.6616  169.1863 C.ar    1  UNL1        0.2057
      4 N         142.7920  141.7159  168.0647 N.ar    1  UNL1       -0.2121
      5 C         142.1429  142.4074  166.9027 C.ar    1  UNL1        0.1182
      6 C         142.6425  142.7456  165.5293 C.ar    1  UNL1        0.0178
      7 C         141.7462  143.4570  164.5593 C.ar    1  UNL1       -0.0230
      8 C         140.3506  143.8300  164.9627 C.ar    1  UNL1       -0.0216
      9 C         139.8510  143.4919  166.3360 C.ar    1  UNL1        0.0346
     10 C         140.7471  142.7806  167.3060 C.ar    1  UNL1        0.1640
     11 O         140.5337  142.3196  168.7174 O.2     1  UNL1       -0.4384
     12 C         139.3013  144.5364  164.1564 C.3     1  UNL1        0.0434
     13 C         139.3886  145.0441  162.7476 C.3     1  UNL1        0.0768
     14 N         140.5468  144.9708  161.7973 N.3     1  UNL1       -0.2720
     15 C         141.9037  144.3718  162.0208 C.3     1  UNL1        0.0768
     16 C         142.4375  143.6980  163.2501 C.3     1  UNL1        0.0434
     17 C         142.0264  141.0557  170.5393 C.3     1  UNL1        0.0853
     18 C         142.6349  138.6472  169.7784 C.3     1  UNL1        0.0005
     19 C         142.8729  139.8249  170.6763 C.3     1  UNL1        0.0097
     20 C         140.1118  144.3123  158.1839 C.3     1  UNL1        0.0666
     21 S         139.7027  142.8779  158.3412 S.3     1  UNL1       -0.0756
     22 C         140.1783  142.0877  159.5242 C.ar    1  UNL1        0.1932
     23 N         141.4846  141.3579  159.6295 N.ar    1  UNL1       -0.1221
     24 N         141.5448  140.7078  160.9800 N.ar    1  UNL1       -0.1282
     25 C         140.2758  141.0359  161.7093 C.ar    1  UNL1        0.1669
     26 N         139.4312  141.8887  160.8096 N.ar    1  UNL1       -0.2884
     27 C         138.0773  142.4449  161.1378 C.3     1  UNL1        0.1340
     28 C         139.9147  140.5895  163.0951 C.ar    1  UNL1        0.0374
     29 C         138.5220  140.7988  163.6114 C.ar    1  UNL1        0.0031
     30 C         138.1609  140.3525  164.9972 C.ar    1  UNL1        0.0016
     31 C         139.1924  139.6967  165.8666 C.ar    1  UNL1        0.0191
     32 C         140.5850  139.4874  165.3503 C.ar    1  UNL1        0.0810
     33 N         141.6166  138.8317  166.2197 N.ar    1  UNL1       -0.2497
     34 C         143.0093  138.6223  165.7034 C.ar    1  UNL1        0.0593
     35 C         144.0409  137.9665  166.5728 C.3     1  UNL1        0.0521
     36 C         143.3704  139.0687  164.3176 C.ar    1  UNL1        0.0147
     37 C         142.3388  139.7244  163.4482 C.ar    1  UNL1        0.0028
     38 C         140.9462  139.9338  163.9645 C.ar    1  UNL1        0.0206
@<TRIPOS>BOND
     1    18    19    1
     2    19    17    1
     3    17     3    1
     4     3     4   ar
     5     4     5   ar
     6     5     6   ar
     7     6     7   ar
     8     7     8   ar
     9     8     9   ar
    10     9    10   ar
    11    10    11   ar
    12     8    12    1
    13    12    13    1
    14    13    14    1
    15    14     2    1
    16     2     1    1
    17     1    20    1
    18    20    21    1
    19    21    22    1
    20    22    23   ar
    21    23    24   ar
    22    24    25   ar
    23    25    28    1
    24    28    29   ar
    25    29    30   ar
    26    30    31   ar
    27    31    32   ar
    28    32    33   ar
    29    33    34   ar
    30    34    35    1
    31    34    36   ar
    32    36    37   ar
    33    37    38   ar
    34    25    26   ar
    35    26    27    1
    36    14    15    1
    37    15    16    1
    38    11     3   ar
    39    26    22   ar
    40    10     5   ar
    41    38    28   ar
    42    16     7    1
    43    38    32   ar
@<TRIPOS>MOLECULE
*****
 38 43 0 0 0
SMALL
GASTEIGER

@<TRIPOS>ATOM
      1 C         139.6164  140.3846  168.1905 C.3     1  UNL1        0.0294
      2 C         138.8186  139.4893  167.2893 C.3     1  UNL1        0.0730
      3 C         137.9335  141.6312  157.8781 C.ar    1  UNL1        0.2057
      4 N         137.9871  140.2528  158.4675 N.ar    1  UNL1       -0.2121
      5 C         138.1277  140.3897  159.9545 C.ar    1  UNL1        0.1182
      6 C         138.2297  139.3711  161.0510 C.ar    1  UNL1        0.0178
      7 C         138.3649  139.8155  162.4773 C.ar    1  UNL1       -0.0230
      8 C         138.3982  141.2783  162.8070 C.ar    1  UNL1       -0.0216
      9 C         138.2962  142.2969  161.7107 C.ar    1  UNL1        0.0346
     10 C         138.1609  141.8526  160.2844 C.ar    1  UNL1        0.1640
     11 O         138.0409  142.6199  159.0011 O.2     1  UNL1       -0.4384
     12 C         138.5260  141.9314  164.1515 C.3     1  UNL1        0.0434
     13 C         138.6522  141.2826  165.4981 C.3     1  UNL1        0.0768
     14 N         138.6816  139.8208  165.8328 N.3     1  UNL1       -0.2720
     15 C         138.5922  138.6465  164.9037 C.3     1  UNL1        0.0768
     16 C         138.4513  138.6442  163.4103 C.3     1  UNL1        0.0434
     17 C         137.7965  141.9627  156.4216 C.3     1  UNL1        0.0853
     18 C         135.7789  141.2590  154.9439 C.3     1  UNL1        0.0005
     19 C         136.4442  142.2579  155.8436 C.3     1  UNL1        0.0097
     20 C         140.5931  139.7923  169.1627 C.3     1  UNL1        0.0666
     21 S         142.0560  139.7637  168.8328 S.3     1  UNL1       -0.0756
     22 C         142.6506  140.8347  167.9670 C.ar    1  UNL1        0.1932
     23 N         143.2153  142.1404  168.4426 N.ar    1  UNL1       -0.1221
     24 N         143.6986  142.9007  167.2433 N.ar    1  UNL1       -0.1282
     25 C         143.4326  142.0648  166.0265 C.ar    1  UNL1        0.1669
     26 N         142.7849  140.7879  166.4738 N.ar    1  UNL1       -0.2884
     27 C         142.3482  139.6620  165.5840 C.3     1  UNL1        0.1340
     28 C         143.7573  142.4400  164.6109 C.ar    1  UNL1        0.0374
     29 C         145.0016  141.9109  163.9614 C.ar    1  UNL1        0.0031
     30 C         145.3263  142.2860  162.5458 C.ar    1  UNL1        0.0016
     31 C         144.4068  143.1902  161.7797 C.ar    1  UNL1        0.0191
     32 C         143.1625  143.7193  162.4293 C.ar    1  UNL1        0.0810
     33 N         142.2430  144.6235  161.6633 N.ar    1  UNL1       -0.2497
     34 C         140.9987  145.1526  162.3128 C.ar    1  UNL1        0.0593
     35 C         140.0791  146.0569  161.5468 C.3     1  UNL1        0.0521
     36 C         140.6741  144.7775  163.7284 C.ar    1  UNL1        0.0147
     37 C         141.5936  143.8733  164.4944 C.ar    1  UNL1        0.0028
     38 C         142.8378  143.3442  163.8448 C.ar    1  UNL1        0.0206
@<TRIPOS>BOND
     1    18    19    1
     2    19    17    1
     3    17     3    1
     4     3     4   ar
     5     4     5   ar
     6     5     6   ar
     7     6     7   ar
     8     7     8   ar
     9     8     9   ar
    10     9    10   ar
    11    10    11   ar
    12     8    12    1
    13    12    13    1
    14    13    14    1
    15    14     2    1
    16     2     1    1
    17     1    20    1
    18    20    21    1
    19    21    22    1
    20    22    23   ar
    21    23    24   ar
    22    24    25   ar
    23    25    28    1
    24    28    29   ar
    25    29    30   ar
    26    30    31   ar
    27    31    32   ar
    28    32    33   ar
    29    33    34   ar
    30    34    35    1
    31    34    36   ar
    32    36    37   ar
    33    37    38   ar
    34    25    26   ar
    35    26    27    1
    36    14    15    1
    37    15    16    1
    38    11     3   ar
    39    26    22   ar
    40    10     5   ar
    41    38    28   ar
    42    16     7    1
    43    38    32   ar
@<TRIPOS>MOLECULE
*****
 38 43 0 0 0
SMALL
GASTEIGER

@<TRIPOS>ATOM
      1 C         140.3010  138.9519  158.6504 C.3     1  UNL1        0.0294
      2 C         139.6538  138.0414  159.6516 C.3     1  UNL1        0.0730
      3 C         140.3223  139.9948  169.1215 C.ar    1  UNL1        0.2057
      4 N         139.0521  139.8874  168.3308 N.ar    1  UNL1       -0.2121
      5 C         139.4157  139.5731  166.9100 C.ar    1  UNL1        0.1182
      6 C         138.5786  139.3547  165.6845 C.ar    1  UNL1        0.0178
      7 C         139.2365  139.0494  164.3715 C.ar    1  UNL1       -0.0230
      8 C         140.7313  138.9625  164.2840 C.ar    1  UNL1       -0.0216
      9 C         141.5684  139.1808  165.5093 C.ar    1  UNL1        0.0346
     10 C         140.9106  139.4861  166.8224 C.ar    1  UNL1        0.1640
     11 O         141.4709  139.7468  168.1892 O.2     1  UNL1       -0.4384
     12 C         141.5826  138.6720  163.0835 C.3     1  UNL1        0.0434
     13 C         141.1490  138.3966  161.6741 C.3     1  UNL1        0.0768
     14 N         139.7573  138.3437  161.1172 N.3     1  UNL1       -0.2720
     15 C         138.4553  138.5532  161.8320 C.3     1  UNL1        0.0768
     16 C         138.2235  138.8673  163.2803 C.3     1  UNL1        0.0434
     17 C         140.4258  140.2971  170.5871 C.3     1  UNL1        0.0853
     18 C         140.0524  142.8623  170.4136 C.3     1  UNL1        0.0005
     19 C         140.7429  141.6899  171.0450 C.3     1  UNL1        0.0097
     20 C         141.5918  138.5534  157.9986 C.3     1  UNL1        0.0666
     21 S         142.7811  139.4645  158.0709 S.3     1  UNL1       -0.0756
     22 C         143.1616  140.0990  159.3758 C.ar    1  UNL1        0.1932
     23 N         144.0953  139.5214  160.3978 N.ar    1  UNL1       -0.1221
     24 N         144.1860  140.4878  161.5414 N.ar    1  UNL1       -0.1282
     25 C         143.3084  141.6627  161.2261 C.ar    1  UNL1        0.1669
     26 N         142.6753  141.4224  159.8876 N.ar    1  UNL1       -0.2884
     27 C         141.7230  142.3438  159.1846 C.3     1  UNL1        0.1340
     28 C         143.1004  142.8665  162.0964 C.ar    1  UNL1        0.0374
     29 C         144.2296  143.8251  162.3331 C.ar    1  UNL1        0.0031
     30 C         144.0216  145.0289  163.2034 C.ar    1  UNL1        0.0016
     31 C         142.6845  145.2743  163.8371 C.ar    1  UNL1        0.0191
     32 C         141.5552  144.3158  163.6005 C.ar    1  UNL1        0.0810
     33 N         140.2180  144.5610  164.2342 N.ar    1  UNL1       -0.2497
     34 C         139.0887  143.6025  163.9976 C.ar    1  UNL1        0.0593
     35 C         137.7514  143.8478  164.6313 C.3     1  UNL1        0.0521
     36 C         139.2967  142.3986  163.1272 C.ar    1  UNL1        0.0147
     37 C         140.6340  142.1534  162.4935 C.ar    1  UNL1        0.0028
     38 C         141.7632  143.1119  162.7302 C.ar    1  UNL1        0.0206
@<TRIPOS>BOND
     1    18    19    1
     2    19    17    1
     3    17     3    1
     4     3     4   ar
     5     4     5   ar
     6     5     6   ar
     7     6     7   ar
     8     7     8   ar
     9     8     9   ar
    10     9    10   ar
    11    10    11   ar
    12     8    12    1
    13    12    13    1
    14    13    14    1
    15    14     2    1
    16     2     1    1
    17     1    20    1
    18    20    21    1
    19    21    22    1
    20    22    23   ar
    21    23    24   ar
    22    24    25   ar
    23    25    28    1
    24    28    29   ar
    25    29    30   ar
    26    30    31   ar
    27    31    32   ar
    28    32    33   ar
    29    33    34   ar
    30    34    35    1
    31    34    36   ar
    32    36    37   ar
    33    37    38   ar
    34    25    26   ar
    35    26    27    1
    36    14    15    1
    37    15    16    1
    38    11     3   ar
    39    26    22   ar
    40    10     5   ar
    41    38    28   ar
    42    16     7    1
    43    38    32   ar
@<TRIPOS>MOLECULE
*****
 38 43 0 0 0
SMALL
GASTEIGER

@<TRIPOS>ATOM
      1 C         142.9982  142.7126  157.8785 C.3     1  UNL1        0.0294
      2 C         144.0538  142.8351  158.9372 C.3     1  UNL1        0.0730
      3 C         141.6458  142.0695  168.2943 C.ar    1  UNL1        0.2057
      4 N         143.0333  142.2471  167.7526 N.ar    1  UNL1       -0.2121
      5 C         142.9414  142.3185  166.2572 C.ar    1  UNL1        0.1182
      6 C         143.9863  142.4879  165.1943 C.ar    1  UNL1        0.0178
      7 C         143.5868  142.5237  163.7489 C.ar    1  UNL1       -0.0230
      8 C         142.1427  142.3903  163.3663 C.ar    1  UNL1       -0.0216
      9 C         141.0978  142.2210  164.4291 C.ar    1  UNL1        0.0346
     10 C         141.4971  142.1851  165.8745 C.ar    1  UNL1        0.1640
     11 O         140.6964  142.0312  167.1336 O.2     1  UNL1       -0.4384
     12 C         141.5335  142.3997  161.9956 C.3     1  UNL1        0.0434
     13 C         142.2183  142.5450  160.6688 C.3     1  UNL1        0.0768
     14 N         143.6811  142.7166  160.3853 N.3     1  UNL1       -0.2720
     15 C         144.8207  142.7854  161.3583 C.3     1  UNL1        0.0768
     16 C         144.7787  142.6996  162.8552 C.3     1  UNL1        0.0434
     17 C         141.2731  141.9510  169.7424 C.3     1  UNL1        0.0853
     18 C         139.0822  140.5648  169.9107 C.3     1  UNL1        0.0005
     19 C         139.8304  141.8446  170.1393 C.3     1  UNL1        0.0097
     20 C         143.1615  141.7176  156.7679 C.3     1  UNL1        0.0666
     21 S         142.3724  140.4421  156.7816 S.3     1  UNL1       -0.0756
     22 C         142.2922  139.6232  158.0358 C.ar    1  UNL1        0.1932
     23 N         143.2926  138.6004  158.4863 N.ar    1  UNL1       -0.1221
     24 N         142.8162  138.0283  159.7886 N.ar    1  UNL1       -0.1282
     25 C         141.5214  138.6977  160.1428 C.ar    1  UNL1        0.1669
     26 N         141.1976  139.6834  159.0595 N.ar    1  UNL1       -0.2884
     27 C         139.9909  140.5730  159.0089 C.3     1  UNL1        0.1340
     28 C         140.6955  138.4286  161.3657 C.ar    1  UNL1        0.0374
     29 C         139.2411  138.0881  161.2285 C.ar    1  UNL1        0.0031
     30 C         138.4152  137.8190  162.4513 C.ar    1  UNL1        0.0016
     31 C         139.0435  137.8904  163.8114 C.ar    1  UNL1        0.0191
     32 C         140.4979  138.2309  163.9487 C.ar    1  UNL1        0.0810
     33 N         141.1264  138.3024  165.3088 N.ar    1  UNL1       -0.2497
     34 C         142.5808  138.6429  165.4461 C.ar    1  UNL1        0.0593
     35 C         143.2092  138.7143  166.8063 C.3     1  UNL1        0.0521
     36 C         143.4067  138.9119  164.2232 C.ar    1  UNL1        0.0147
     37 C         142.7782  138.8405  162.8631 C.ar    1  UNL1        0.0028
     38 C         141.3239  138.5000  162.7258 C.ar    1  UNL1        0.0206
@<TRIPOS>BOND
     1    18    19    1
     2    19    17    1
     3    17     3    1
     4     3     4   ar
     5     4     5   ar
     6     5     6   ar
     7     6     7   ar
     8     7     8   ar
     9     8     9   ar
    10     9    10   ar
    11    10    11   ar
    12     8    12    1
    13    12    13    1
    14    13    14    1
    15    14     2    1
    16     2     1    1
    17     1    20    1
    18    20    21    1
    19    21    22    1
    20    22    23   ar
    21    23    24   ar
    22    24    25   ar
    23    25    28    1
    24    28    29   ar
    25    29    30   ar
    26    30    31   ar
    27    31    32   ar
    28    32    33   ar
    29    33    34   ar
    30    34    35    1
    31    34    36   ar
    32    36    37   ar
    33    37    38   ar
    34    25    26   ar
    35    26    27    1
    36    14    15    1
    37    15    16    1
    38    11     3   ar
    39    26    22   ar
    40    10     5   ar
    41    38    28   ar
    42    16     7    1
    43    38    32   ar
@<TRIPOS>MOLECULE
*****
 38 43 0 0 0
SMALL
GASTEIGER

@<TRIPOS>ATOM
      1 C         143.1285  142.5728  158.4688 C.3     1  UNL1        0.0294
      2 C         144.2574  142.3012  159.4185 C.3     1  UNL1        0.0730
      3 C         142.5109  141.4935  168.9179 C.ar    1  UNL1        0.2057
      4 N         143.3267  142.5664  168.2595 N.ar    1  UNL1       -0.2121
      5 C         143.3328  142.3035  166.7828 C.ar    1  UNL1        0.1182
      6 C         143.9729  143.0294  165.6367 C.ar    1  UNL1        0.0178
      7 C         143.8010  142.5200  164.2363 C.ar    1  UNL1       -0.0230
      8 C         142.9890  141.2848  163.9821 C.ar    1  UNL1       -0.0216
      9 C         142.3489  140.5588  165.1280 C.ar    1  UNL1        0.0346
     10 C         142.5208  141.0682  166.5284 C.ar    1  UNL1        0.1640
     11 O         142.0129  140.5676  167.8481 O.2     1  UNL1       -0.4384
     12 C         142.6940  140.6122  162.6741 C.3     1  UNL1        0.0434
     13 C         143.1383  141.0090  161.2973 C.3     1  UNL1        0.0768
     14 N         143.9871  142.1762  160.8887 N.3     1  UNL1       -0.2720
     15 C         144.6014  143.2349  161.7557 C.3     1  UNL1        0.0768
     16 C         144.5186  143.3880  163.2455 C.3     1  UNL1        0.0434
     17 C         142.2406  141.3685  170.3881 C.3     1  UNL1        0.0853
     18 C         140.0102  142.6790  170.1482 C.3     1  UNL1        0.0005
     19 C         140.9090  141.7792  170.9434 C.3     1  UNL1        0.0097
     20 C         142.9289  143.9528  157.9160 C.3     1  UNL1        0.0666
     21 S         141.5608  144.5677  157.9099 S.3     1  UNL1       -0.0756
     22 C         140.4743  143.9882  158.7664 C.ar    1  UNL1        0.1932
     23 N         139.2622  143.2533  158.2757 N.ar    1  UNL1       -0.1221
     24 N         138.4479  142.8527  159.4699 N.ar    1  UNL1       -0.1282
     25 C         139.1566  143.3400  160.6988 C.ar    1  UNL1        0.1669
     26 N         140.4091  144.0418  160.2640 N.ar    1  UNL1       -0.2884
     27 C         141.4189  144.6844  161.1681 C.3     1  UNL1        0.1340
     28 C         138.6942  143.1576  162.1141 C.ar    1  UNL1        0.0374
     29 C         138.1647  144.3291  162.8870 C.ar    1  UNL1        0.0031
     30 C         137.7023  144.1467  164.3022 C.ar    1  UNL1        0.0016
     31 C         137.7694  142.7929  164.9446 C.ar    1  UNL1        0.0191
     32 C         138.2989  141.6215  164.1717 C.ar    1  UNL1        0.0810
     33 N         138.3660  140.2676  164.8140 N.ar    1  UNL1       -0.2497
     34 C         138.8955  139.0961  164.0412 C.ar    1  UNL1        0.0593
     35 C         138.9626  137.7423  164.6835 C.3     1  UNL1        0.0521
     36 C         139.3579  139.2786  162.6259 C.ar    1  UNL1        0.0147
     37 C         139.2908  140.6324  161.9836 C.ar    1  UNL1        0.0028
     38 C         138.7613  141.8039  162.7565 C.ar    1  UNL1        0.0206
@<TRIPOS>BOND
     1    18    19    1
     2    19    17    1
     3    17     3    1
     4     3     4   ar
     5     4     5   ar
     6     5     6   ar
     7     6     7   ar
     8     7     8   ar
     9     8     9   ar
    10     9    10   ar
    11    10    11   ar
    12     8    12    1
    13    12    13    1
    14    13    14    1
    15    14     2    1
    16     2     1    1
    17     1    20    1
    18    20    21    1
    19    21    22    1
    20    22    23   ar
    21    23    24   ar
    22    24    25   ar
    23    25    28    1
    24    28    29   ar
    25    29    30   ar
    26    30    31   ar
    27    31    32   ar
    28    32    33   ar
    29    33    34   ar
    30    34    35    1
    31    34    36   ar
    32    36    37   ar
    33    37    38   ar
    34    25    26   ar
    35    26    27    1
    36    14    15    1
    37    15    16    1
    38    11     3   ar
    39    26    22   ar
    40    10     5   ar
    41    38    28   ar
    42    16     7    1
    43    38    32   ar
@<TRIPOS>MOLECULE
*****
 38 43 0 0 0
SMALL
GASTEIGER

@<TRIPOS>ATOM
      1 C         141.2132  144.7673  158.2625 C.3     1  UNL1        0.0294
      2 C         141.1299  145.5044  159.5663 C.3     1  UNL1        0.0730
      3 C         141.2103  140.5951  167.9229 C.ar    1  UNL1        0.2057
      4 N         142.1346  140.3751  166.7621 N.ar    1  UNL1       -0.2121
      5 C         141.7669  141.3523  165.6852 C.ar    1  UNL1        0.1182
      6 C         142.3319  141.5983  164.3176 C.ar    1  UNL1        0.0178
      7 C         141.7453  142.6683  163.4451 C.ar    1  UNL1       -0.0230
      8 C         140.5939  143.4921  163.9402 C.ar    1  UNL1       -0.0216
      9 C         140.0288  143.2462  165.3078 C.ar    1  UNL1        0.0346
     10 C         140.6153  142.1762  166.1803 C.ar    1  UNL1        0.1640
     11 O         140.2714  141.7082  167.5633 O.2     1  UNL1       -0.4384
     12 C         139.8661  144.5999  163.2378 C.3     1  UNL1        0.0434
     13 C         140.1102  145.1573  161.8667 C.3     1  UNL1        0.0768
     14 N         141.1423  144.7446  160.8596 N.3     1  UNL1       -0.2720
     15 C         142.1853  143.6727  160.9746 C.3     1  UNL1        0.0768
     16 C         142.4536  142.7486  162.1253 C.3     1  UNL1        0.0434
     17 C         141.2227  139.8353  169.2162 C.3     1  UNL1        0.0853
     18 C         142.8842  138.1706  170.3198 C.3     1  UNL1        0.0005
     19 C         142.5219  139.5694  169.9174 C.3     1  UNL1        0.0097
     20 C         139.9768  144.5562  157.4399 C.3     1  UNL1        0.0666
     21 S         139.2051  143.2757  157.5608 S.3     1  UNL1       -0.0756
     22 C         139.1284  142.5681  158.8811 C.ar    1  UNL1        0.1932
     23 N         138.1778  142.8848  159.9973 N.ar    1  UNL1       -0.1221
     24 N         138.4508  141.9319  161.1232 N.ar    1  UNL1       -0.1282
     25 C         139.5702  141.0263  160.7027 C.ar    1  UNL1        0.1669
     26 N         139.9890  141.4194  159.3171 N.ar    1  UNL1       -0.2884
     27 C         141.0773  140.7767  158.5092 C.3     1  UNL1        0.1340
     28 C         140.1661  139.9214  161.5238 C.ar    1  UNL1        0.0374
     29 C         141.2981  139.1052  160.9740 C.ar    1  UNL1        0.0031
     30 C         141.8941  138.0004  161.7951 C.ar    1  UNL1        0.0016
     31 C         141.3580  137.7117  163.1659 C.ar    1  UNL1        0.0191
     32 C         140.2260  138.5279  163.7157 C.ar    1  UNL1        0.0810
     33 N         139.6899  138.2393  165.0866 N.ar    1  UNL1       -0.2497
     34 C         138.5578  139.0555  165.6364 C.ar    1  UNL1        0.0593
     35 C         138.0217  138.7668  167.0073 C.3     1  UNL1        0.0521
     36 C         137.9619  140.1603  164.8153 C.ar    1  UNL1        0.0147
     37 C         138.4980  140.4490  163.4444 C.ar    1  UNL1        0.0028
     38 C         139.6301  139.6327  162.8946 C.ar    1  UNL1        0.0206
@<TRIPOS>BOND
     1    18    19    1
     2    19    17    1
     3    17     3    1
     4     3     4   ar
     5     4     5   ar
     6     5     6   ar
     7     6     7   ar
     8     7     8   ar
     9     8     9   ar
    10     9    10   ar
    11    10    11   ar
    12     8    12    1
    13    12    13    1
    14    13    14    1
    15    14     2    1
    16     2     1    1
    17     1    20    1
    18    20    21    1
    19    21    22    1
    20    22    23   ar
    21    23    24   ar
    22    24    25   ar
    23    25    28    1
    24    28    29   ar
    25    29    30   ar
    26    30    31   ar
    27    31    32   ar
    28    32    33   ar
    29    33    34   ar
    30    34    35    1
    31    34    36   ar
    32    36    37   ar
    33    37    38   ar
    34    25    26   ar
    35    26    27    1
    36    14    15    1
    37    15    16    1
    38    11     3   ar
    39    26    22   ar
    40    10     5   ar
    41    38    28   ar
    42    16     7    1
    43    38    32   ar
@<TRIPOS>MOLECULE
*****
 38 43 0 0 0
SMALL
GASTEIGER

@<TRIPOS>ATOM
      1 C         144.0782  143.0150  158.0828 C.3     1  UNL1        0.0294
      2 C         144.4410  141.8087  158.8973 C.3     1  UNL1        0.0730
      3 C         142.3025  141.5185  168.3463 C.ar    1  UNL1        0.2057
      4 N         141.7276  140.6285  167.2844 N.ar    1  UNL1       -0.2121
      5 C         142.3363  141.0213  165.9710 C.ar    1  UNL1        0.1182
      6 C         142.1473  140.4938  164.5795 C.ar    1  UNL1        0.0178
      7 C         142.9095  141.0991  163.4381 C.ar    1  UNL1       -0.0230
      8 C         143.8605  142.2317  163.6881 C.ar    1  UNL1       -0.0216
      9 C         144.0495  142.7592  165.0795 C.ar    1  UNL1        0.0346
     10 C         143.2873  142.1540  166.2210 C.ar    1  UNL1        0.1640
     11 O         143.2664  142.4612  167.6890 O.2     1  UNL1       -0.4384
     12 C         144.7123  142.9731  162.7007 C.3     1  UNL1        0.0434
     13 C         144.8233  142.7648  161.2193 C.3     1  UNL1        0.0768
     14 N         144.1100  141.7638  160.3597 N.3     1  UNL1       -0.2720
     15 C         143.1095  140.7238  160.7688 C.3     1  UNL1        0.0768
     16 C         142.5753  140.4280  162.1389 C.3     1  UNL1        0.0434
     17 C         141.9715  141.4736  169.8086 C.3     1  UNL1        0.0853
     18 C         140.4117  143.5331  169.5342 C.3     1  UNL1        0.0005
     19 C         141.1120  142.5423  170.4162 C.3     1  UNL1        0.0097
     20 C         142.7593  143.0700  157.3704 C.3     1  UNL1        0.0666
     21 S         141.7193  144.0648  157.7934 S.3     1  UNL1       -0.0756
     22 C         140.5813  143.6331  158.6701 C.ar    1  UNL1        0.1932
     23 N         139.2850  143.0398  158.2037 N.ar    1  UNL1       -0.1221
     24 N         138.4422  142.7590  159.4124 N.ar    1  UNL1       -0.1282
     25 C         139.2177  143.1788  160.6258 C.ar    1  UNL1        0.1669
     26 N         140.5398  143.7191  160.1670 N.ar    1  UNL1       -0.2884
     27 C         141.6289  144.2517  161.0502 C.3     1  UNL1        0.1340
     28 C         138.7528  143.0764  162.0482 C.ar    1  UNL1        0.0374
     29 C         138.3050  144.3060  162.7813 C.ar    1  UNL1        0.0031
     30 C         137.8401  144.2036  164.2037 C.ar    1  UNL1        0.0016
     31 C         137.8230  142.8716  164.8932 C.ar    1  UNL1        0.0191
     32 C         138.2709  141.6419  164.1601 C.ar    1  UNL1        0.0810
     33 N         138.2539  140.3099  164.8495 N.ar    1  UNL1       -0.2497
     34 C         138.7018  139.0801  164.1165 C.ar    1  UNL1        0.0593
     35 C         138.6848  137.7481  164.8058 C.3     1  UNL1        0.0521
     36 C         139.1667  139.1827  162.6940 C.ar    1  UNL1        0.0147
     37 C         139.1837  140.5147  162.0046 C.ar    1  UNL1        0.0028
     38 C         138.7358  141.7444  162.7377 C.ar    1  UNL1        0.0206
@<TRIPOS>BOND
     1    18    19    1
     2    19    17    1
     3    17     3    1
     4     3     4   ar
     5     4     5   ar
     6     5     6   ar
     7     6     7   ar
     8     7     8   ar
     9     8     9   ar
    10     9    10   ar
    11    10    11   ar
    12     8    12    1
    13    12    13    1
    14    13    14    1
    15    14     2    1
    16     2     1    1
    17     1    20    1
    18    20    21    1
    19    21    22    1
    20    22    23   ar
    21    23    24   ar
    22    24    25   ar
    23    25    28    1
    24    28    29   ar
    25    29    30   ar
    26    30    31   ar
    27    31    32   ar
    28    32    33   ar
    29    33    34   ar
    30    34    35    1
    31    34    36   ar
    32    36    37   ar
    33    37    38   ar
    34    25    26   ar
    35    26    27    1
    36    14    15    1
    37    15    16    1
    38    11     3   ar
    39    26    22   ar
    40    10     5   ar
    41    38    28   ar
    42    16     7    1
    43    38    32   ar
@<TRIPOS>MOLECULE
*****
 38 43 0 0 0
SMALL
GASTEIGER

@<TRIPOS>ATOM
      1 C         142.2914  138.5484  158.5903 C.3     1  UNL1        0.0294
      2 C         143.4831  138.8063  159.4641 C.3     1  UNL1        0.0730
      3 C         142.2462  141.0003  168.8234 C.ar    1  UNL1        0.2057
      4 N         142.9719  141.8354  167.8105 N.ar    1  UNL1       -0.2121
      5 C         142.9197  141.1172  166.4947 C.ar    1  UNL1        0.1182
      6 C         143.4645  141.4627  165.1404 C.ar    1  UNL1        0.0178
      7 C         143.2513  140.5291  163.9858 C.ar    1  UNL1       -0.0230
      8 C         142.4934  139.2502  164.1855 C.ar    1  UNL1       -0.0216
      9 C         141.9487  138.9047  165.5396 C.ar    1  UNL1        0.0346
     10 C         142.1618  139.8383  166.6943 C.ar    1  UNL1        0.1640
     11 O         141.7456  139.7660  168.1336 O.2     1  UNL1       -0.4384
     12 C         142.1705  138.1873  163.1775 C.3     1  UNL1        0.0434
     13 C         142.5258  138.1409  161.7208 C.3     1  UNL1        0.0768
     14 N         143.2917  139.1458  160.9126 N.3     1  UNL1       -0.2720
     15 C         143.8915  140.4455  161.3611 C.3     1  UNL1        0.0768
     16 C         143.8735  141.0611  162.7289 C.3     1  UNL1        0.0434
     17 C         142.0548  141.3398  170.2719 C.3     1  UNL1        0.0853
     18 C         140.4398  143.3555  169.9916 C.3     1  UNL1        0.0005
     19 C         140.8381  142.1002  170.7096 C.3     1  UNL1        0.0097
     20 C         142.1326  139.2948  157.2989 C.3     1  UNL1        0.0666
     21 S         140.9402  140.1795  157.0858 S.3     1  UNL1       -0.0756
     22 C         139.8875  140.2883  158.1488 C.ar    1  UNL1        0.1932
     23 N         138.5475  139.6144  158.1349 N.ar    1  UNL1       -0.1221
     24 N         137.8217  139.9998  159.3899 N.ar    1  UNL1       -0.1282
     25 C         138.7133  140.9118  160.1794 C.ar    1  UNL1        0.1669
     26 N         139.9900  141.0902  159.4124 N.ar    1  UNL1       -0.2884
     27 C         141.1632  141.9239  159.8348 C.3     1  UNL1        0.1340
     28 C         138.3857  141.5359  161.5034 C.ar    1  UNL1        0.0374
     29 C         138.0804  143.0022  161.5864 C.ar    1  UNL1        0.0031
     30 C         137.7528  143.6263  162.9105 C.ar    1  UNL1        0.0016
     31 C         137.7304  142.7843  164.1516 C.ar    1  UNL1        0.0191
     32 C         138.0357  141.3180  164.0686 C.ar    1  UNL1        0.0810
     33 N         138.0134  140.4759  165.3096 N.ar    1  UNL1       -0.2497
     34 C         138.3187  139.0096  165.2268 C.ar    1  UNL1        0.0593
     35 C         138.2963  138.1674  166.4678 C.3     1  UNL1        0.0521
     36 C         138.6463  138.3855  163.9026 C.ar    1  UNL1        0.0147
     37 C         138.6686  139.2276  162.6615 C.ar    1  UNL1        0.0028
     38 C         138.3633  140.6939  162.7445 C.ar    1  UNL1        0.0206
@<TRIPOS>BOND
     1    18    19    1
     2    19    17    1
     3    17     3    1
     4     3     4   ar
     5     4     5   ar
     6     5     6   ar
     7     6     7   ar
     8     7     8   ar
     9     8     9   ar
    10     9    10   ar
    11    10    11   ar
    12     8    12    1
    13    12    13    1
    14    13    14    1
    15    14     2    1
    16     2     1    1
    17     1    20    1
    18    20    21    1
    19    21    22    1
    20    22    23   ar
    21    23    24   ar
    22    24    25   ar
    23    25    28    1
    24    28    29   ar
    25    29    30   ar
    26    30    31   ar
    27    31    32   ar
    28    32    33   ar
    29    33    34   ar
    30    34    35    1
    31    34    36   ar
    32    36    37   ar
    33    37    38   ar
    34    25    26   ar
    35    26    27    1
    36    14    15    1
    37    15    16    1
    38    11     3   ar
    39    26    22   ar
    40    10     5   ar
    41    38    28   ar
    42    16     7    1
    43    38    32   ar
@<TRIPOS>MOLECULE
*****
 38 43 0 0 0
SMALL
GASTEIGER

@<TRIPOS>ATOM
      1 C         139.7049  140.3783  168.1458 C.3     1  UNL1        0.0294
      2 C         139.0031  139.3575  167.2997 C.3     1  UNL1        0.0730
      3 C         139.9505  139.5768  157.6563 C.ar    1  UNL1        0.2057
      4 N         139.4138  138.4322  158.4638 N.ar    1  UNL1       -0.2121
      5 C         139.4465  138.8295  159.9098 C.ar    1  UNL1        0.1182
      6 C         139.0411  138.1050  161.1592 C.ar    1  UNL1        0.0178
      7 C         139.1925  138.7708  162.4948 C.ar    1  UNL1       -0.0230
      8 C         139.7493  140.1608  162.5811 C.ar    1  UNL1       -0.0216
      9 C         140.1547  140.8854  161.3318 C.ar    1  UNL1        0.0346
     10 C         140.0033  140.2197  159.9961 C.ar    1  UNL1        0.1640
     11 O         140.3148  140.6815  158.6034 O.2     1  UNL1       -0.4384
     12 C         139.9819  141.0011  163.8018 C.3     1  UNL1        0.0434
     13 C         139.7150  140.6586  165.2376 C.3     1  UNL1        0.0768
     14 N         139.1498  139.3915  165.8073 N.3     1  UNL1       -0.2720
     15 C         138.7117  138.1537  165.0820 C.3     1  UNL1        0.0768
     16 C         138.7307  137.8775  163.6078 C.3     1  UNL1        0.0434
     17 C         140.0971  139.6108  156.1639 C.3     1  UNL1        0.0853
     18 C         142.2547  138.3628  155.4310 C.3     1  UNL1        0.0005
     19 C         140.7587  138.4699  155.4491 C.3     1  UNL1        0.0097
     20 C         140.6016  139.9370  169.2644 C.3     1  UNL1        0.0666
     21 S         142.0904  140.0474  169.1201 S.3     1  UNL1       -0.0756
     22 C         142.7393  139.7597  167.7986 C.ar    1  UNL1        0.1932
     23 N         143.3023  138.4398  167.3616 N.ar    1  UNL1       -0.1221
     24 N         143.8500  138.6057  165.9751 N.ar    1  UNL1       -0.1282
     25 C         143.6255  140.0281  165.5552 C.ar    1  UNL1        0.1669
     26 N         142.9391  140.7414  166.6822 N.ar    1  UNL1       -0.2884
     27 C         142.5251  142.1831  166.6912 C.3     1  UNL1        0.1340
     28 C         144.0185  140.6314  164.2393 C.ar    1  UNL1        0.0374
     29 C         144.7101  141.9619  164.2009 C.ar    1  UNL1        0.0031
     30 C         145.1031  142.5653  162.8851 C.ar    1  UNL1        0.0016
     31 C         144.8045  141.8381  161.6075 C.ar    1  UNL1        0.0191
     32 C         144.1129  140.5076  161.6459 C.ar    1  UNL1        0.0810
     33 N         143.8143  139.7805  160.3684 N.ar    1  UNL1       -0.2497
     34 C         143.1227  138.4499  160.4067 C.ar    1  UNL1        0.0593
     35 C         142.8241  137.7227  159.1293 C.3     1  UNL1        0.0521
     36 C         142.7297  137.8466  161.7227 C.ar    1  UNL1        0.0147
     37 C         143.0284  138.5738  163.0002 C.ar    1  UNL1        0.0028
     38 C         143.7200  139.9043  162.9618 C.ar    1  UNL1        0.0206
@<TRIPOS>BOND
     1    18    19    1
     2    19    17    1
     3    17     3    1
     4     3     4   ar
     5     4     5   ar
     6     5     6   ar
     7     6     7   ar
     8     7     8   ar
     9     8     9   ar
    10     9    10   ar
    11    10    11   ar
    12     8    12    1
    13    12    13    1
    14    13    14    1
    15    14     2    1
    16     2     1    1
    17     1    20    1
    18    20    21    1
    19    21    22    1
    20    22    23   ar
    21    23    24   ar
    22    24    25   ar
    23    25    28    1
    24    28    29   ar
    25    29    30   ar
    26    30    31   ar
    27    31    32   ar
    28    32    33   ar
    29    33    34   ar
    30    34    35    1
    31    34    36   ar
    32    36    37   ar
    33    37    38   ar
    34    25    26   ar
    35    26    27    1
    36    14    15    1
    37    15    16    1
    38    11     3   ar
    39    26    22   ar
    40    10     5   ar
    41    38    28   ar
    42    16     7    1
    43    38    32   ar
