@<TRIPOS>MOLECULE
*****
 32 36 0 0 0
SMALL
GASTEIGER

@<TRIPOS>ATOM
      1 N         142.4121  138.0505  162.4733 N.3     1  UNL1       -0.2700
      2 C         142.5818  138.0727  163.9635 C.3     1  UNL1        0.0897
      3 C         141.3861  137.9222  164.8567 C.3     1  UNL1        0.0897
      4 N         140.0208  137.7496  164.2597 N.3     1  UNL1       -0.2700
      5 C         139.8513  137.7275  162.7694 C.3     1  UNL1        0.0897
      6 C         141.0469  137.8779  161.8763 C.3     1  UNL1        0.0897
      7 C         143.6077  138.2010  161.5800 C.3     1  UNL1        0.0769
      8 C         144.0305  139.5633  161.1159 C.3     1  UNL1        0.0433
      9 C         142.5170  142.1298  160.7660 C.3     1  UNL1        0.0305
     10 C         143.4428  141.9583  161.9338 C.ar    1  UNL1       -0.0260
     11 C         144.1995  140.6749  162.1087 C.ar    1  UNL1       -0.0249
     12 C         145.1252  140.5033  163.2764 C.ar    1  UNL1       -0.0043
     13 C         145.2942  141.6149  164.2692 C.ar    1  UNL1        0.0059
     14 C         144.5375  142.8982  164.0944 C.ar    1  UNL1        0.0748
     15 C         143.6118  143.0699  162.9266 C.ar    1  UNL1        0.0233
     16 C         143.0030  144.4379  163.0149 C.3     1  UNL1        0.2352
     17 O         143.5525  145.1117  164.2372 O.3     1  UNL1       -0.4404
     18 C         144.5009  144.1602  164.9043 C.2     1  UNL1        0.3413
     19 O         145.2764  144.4242  166.1608 O.2     1  UNL1       -0.2449
     20 C         138.8253  137.5992  165.1530 C.3     1  UNL1        0.0769
     21 C         138.2302  138.8043  165.8190 C.3     1  UNL1        0.0433
     22 C         138.3507  140.1534  165.1744 C.ar    1  UNL1       -0.0249
     23 C         137.5765  140.4604  163.9268 C.ar    1  UNL1       -0.0043
     24 C         137.6970  141.8095  163.2823 C.ar    1  UNL1        0.0059
     25 C         138.5917  142.8516  163.8853 C.ar    1  UNL1        0.0748
     26 C         139.3658  142.5446  165.1329 C.ar    1  UNL1        0.0233
     27 C         139.2453  141.1955  165.7774 C.ar    1  UNL1       -0.0260
     28 C         140.0195  140.8885  167.0249 C.3     1  UNL1        0.0305
     29 C         140.1625  143.7627  165.4955 C.3     1  UNL1        0.2352
     30 O         139.8806  144.8225  164.4721 O.3     1  UNL1       -0.4404
     31 C         138.9098  144.2595  163.4770 C.2     1  UNL1        0.3413
     32 O         138.3547  144.9780  162.2831 O.2     1  UNL1       -0.2449
@<TRIPOS>BOND
     1     9    10    1
     2    10    11   ar
     3    11     8    1
     4     8     7    1
     5     7     1    1
     6     1     2    1
     7     2     3    1
     8     3     4    1
     9     4    20    1
    10    20    21    1
    11    21    22    1
    12    22    23   ar
    13    23    24   ar
    14    24    25   ar
    15    25    26   ar
    16    26    27   ar
    17    27    28    1
    18    26    29    1
    19    29    30    1
    20    30    31    1
    21    31    32    2
    22     4     5    1
    23     5     6    1
    24    11    12   ar
    25    12    13   ar
    26    13    14   ar
    27    14    15   ar
    28    15    16    1
    29    16    17    1
    30    17    18    1
    31    18    19    2
    32    15    10   ar
    33     6     1    1
    34    18    14    1
    35    27    22   ar
    36    31    25    1
@<TRIPOS>MOLECULE
*****
 32 36 0 0 0
SMALL
GASTEIGER

@<TRIPOS>ATOM
      1 N         140.0175  137.7716  164.1873 N.3     1  UNL1       -0.2700
      2 C         139.8438  137.8009  162.6977 C.3     1  UNL1        0.0897
      3 C         141.0406  137.9512  161.8059 C.3     1  UNL1        0.0897
      4 N         142.4110  138.0722  162.4037 N.3     1  UNL1       -0.2700
      5 C         142.5846  138.0428  163.8934 C.3     1  UNL1        0.0897
      6 C         141.3879  137.8925  164.7851 C.3     1  UNL1        0.0897
      7 C         138.8209  137.6213  165.0792 C.3     1  UNL1        0.0769
      8 C         138.2514  138.8199  165.7785 C.3     1  UNL1        0.0433
      9 C         140.0524  140.9076  166.9609 C.3     1  UNL1        0.0305
     10 C         139.2479  141.2189  165.7338 C.ar    1  UNL1       -0.0260
     11 C         138.3473  140.1751  165.1425 C.ar    1  UNL1       -0.0249
     12 C         137.5428  140.4864  163.9155 C.ar    1  UNL1       -0.0043
     13 C         137.6387  141.8415  163.2796 C.ar    1  UNL1        0.0059
     14 C         138.5392  142.8854  163.8707 C.ar    1  UNL1        0.0748
     15 C         139.3438  142.5741  165.0978 C.ar    1  UNL1        0.0233
     16 C         140.1396  143.7951  165.4525 C.3     1  UNL1        0.2352
     17 O         139.8268  144.8611  164.4446 O.3     1  UNL1       -0.4404
     18 C         138.8377  144.2988  163.4670 C.2     1  UNL1        0.3413
     19 O         138.2503  145.0229  162.2920 O.2     1  UNL1       -0.2449
     20 C         143.6076  138.2224  161.5119 C.3     1  UNL1        0.0769
     21 C         144.0410  139.5861  161.0618 C.3     1  UNL1        0.0433
     22 C         144.2073  140.6891  162.0646 C.ar    1  UNL1       -0.0249
     23 C         145.1312  140.5082  163.2323 C.ar    1  UNL1       -0.0043
     24 C         145.2974  141.6113  164.2351 C.ar    1  UNL1        0.0059
     25 C         144.5397  142.8953  164.0702 C.ar    1  UNL1        0.0748
     26 C         143.6158  143.0762  162.9025 C.ar    1  UNL1        0.0233
     27 C         143.4495  141.9731  161.8996 C.ar    1  UNL1       -0.0260
     28 C         142.5256  142.1541  160.7320 C.3     1  UNL1        0.0305
     29 C         143.0055  144.4428  163.0017 C.3     1  UNL1        0.2352
     30 O         143.5522  145.1065  164.2308 O.3     1  UNL1       -0.4404
     31 C         144.5004  144.1501  164.8911 C.2     1  UNL1        0.3413
     32 O         145.2736  144.4039  166.1511 O.2     1  UNL1       -0.2449
@<TRIPOS>BOND
     1     9    10    1
     2    10    11   ar
     3    11     8    1
     4     8     7    1
     5     7     1    1
     6     1     2    1
     7     2     3    1
     8     3     4    1
     9     4    20    1
    10    20    21    1
    11    21    22    1
    12    22    23   ar
    13    23    24   ar
    14    24    25   ar
    15    25    26   ar
    16    26    27   ar
    17    27    28    1
    18    26    29    1
    19    29    30    1
    20    30    31    1
    21    31    32    2
    22     4     5    1
    23     5     6    1
    24    11    12   ar
    25    12    13   ar
    26    13    14   ar
    27    14    15   ar
    28    15    16    1
    29    16    17    1
    30    17    18    1
    31    18    19    2
    32    15    10   ar
    33     6     1    1
    34    18    14    1
    35    27    22   ar
    36    31    25    1
@<TRIPOS>MOLECULE
*****
 32 36 0 0 0
SMALL
GASTEIGER

@<TRIPOS>ATOM
      1 N         139.4678  138.5339  162.1560 N.3     1  UNL1       -0.2700
      2 C         139.1136  137.7785  163.4026 C.3     1  UNL1        0.0897
      3 C         140.1181  137.6432  164.5084 C.3     1  UNL1        0.0897
      4 N         141.4766  138.2633  164.3678 N.3     1  UNL1       -0.2700
      5 C         141.8307  139.0187  163.1212 C.3     1  UNL1        0.0897
      6 C         140.8264  139.1540  162.0153 C.3     1  UNL1        0.0897
      7 C         138.4635  138.6692  161.0501 C.3     1  UNL1        0.0769
      8 C         137.5780  139.8782  160.9849 C.3     1  UNL1        0.0433
      9 C         139.0986  142.2206  159.8889 C.3     1  UNL1        0.0305
     10 C         138.6221  142.2349  161.3111 C.ar    1  UNL1       -0.0260
     11 C         137.8618  141.0637  161.8592 C.ar    1  UNL1       -0.0249
     12 C         137.3853  141.0779  163.2814 C.ar    1  UNL1       -0.0043
     13 C         137.6690  142.2633  164.1556 C.ar    1  UNL1        0.0059
     14 C         138.4292  143.4345  163.6076 C.ar    1  UNL1        0.0748
     15 C         138.9058  143.4203  162.1854 C.ar    1  UNL1        0.0233
     16 C         139.6262  144.7099  161.9250 C.3     1  UNL1        0.2352
     17 O         139.5950  145.5212  163.1863 O.3     1  UNL1       -0.4404
     18 C         138.8552  144.7329  164.2262 C.2     1  UNL1        0.3413
     19 O         138.5883  145.1670  165.6370 O.2     1  UNL1       -0.2449
     20 C         142.4809  138.1280  165.4736 C.3     1  UNL1        0.0769
     21 C         143.1265  139.3511  166.0543 C.3     1  UNL1        0.0433
     22 C         142.5113  140.0322  167.2407 C.ar    1  UNL1       -0.0249
     23 C         142.6790  139.4474  168.6118 C.ar    1  UNL1       -0.0043
     24 C         142.0638  140.1286  169.7981 C.ar    1  UNL1        0.0059
     25 C         141.2807  141.3946  169.6135 C.ar    1  UNL1        0.0748
     26 C         141.1129  141.9794  168.2424 C.ar    1  UNL1        0.0233
     27 C         141.7282  141.2982  167.0560 C.ar    1  UNL1       -0.0260
     28 C         141.5604  141.8830  165.6850 C.3     1  UNL1        0.0305
     29 C         140.2933  143.2293  168.3688 C.3     1  UNL1        0.2352
     30 O         139.9545  143.4169  169.8179 O.3     1  UNL1       -0.4404
     31 C         140.5648  142.2830  170.5872 C.2     1  UNL1        0.3413
     32 O         140.4749  142.0742  172.0698 O.2     1  UNL1       -0.2449
@<TRIPOS>BOND
     1     9    10    1
     2    10    11   ar
     3    11     8    1
     4     8     7    1
     5     7     1    1
     6     1     2    1
     7     2     3    1
     8     3     4    1
     9     4    20    1
    10    20    21    1
    11    21    22    1
    12    22    23   ar
    13    23    24   ar
    14    24    25   ar
    15    25    26   ar
    16    26    27   ar
    17    27    28    1
    18    26    29    1
    19    29    30    1
    20    30    31    1
    21    31    32    2
    22     4     5    1
    23     5     6    1
    24    11    12   ar
    25    12    13   ar
    26    13    14   ar
    27    14    15   ar
    28    15    16    1
    29    16    17    1
    30    17    18    1
    31    18    19    2
    32    15    10   ar
    33     6     1    1
    34    18    14    1
    35    27    22   ar
    36    31    25    1
@<TRIPOS>MOLECULE
*****
 32 36 0 0 0
SMALL
GASTEIGER

@<TRIPOS>ATOM
      1 N         141.4265  138.2235  164.3773 N.3     1  UNL1       -0.2700
      2 C         141.7894  138.9612  163.1226 C.3     1  UNL1        0.0897
      3 C         140.7832  139.1047  162.0194 C.3     1  UNL1        0.0897
      4 N         139.4142  138.5105  162.1708 N.3     1  UNL1       -0.2700
      5 C         139.0514  137.7729  163.4255 C.3     1  UNL1        0.0897
      6 C         140.0576  137.6294  164.5287 C.3     1  UNL1        0.0897
      7 C         142.4326  138.0800  165.4805 C.3     1  UNL1        0.0769
      8 C         143.0946  139.2973  166.0549 C.3     1  UNL1        0.0433
      9 C         141.5344  141.8309  165.6714 C.3     1  UNL1        0.0305
     10 C         141.7093  141.2588  167.0470 C.ar    1  UNL1       -0.0260
     11 C         142.4894  139.9920  167.2388 C.ar    1  UNL1       -0.0249
     12 C         142.6644  139.4199  168.6142 C.ar    1  UNL1       -0.0043
     13 C         142.0593  140.1145  169.7980 C.ar    1  UNL1        0.0059
     14 C         141.2792  141.3812  169.6063 C.ar    1  UNL1        0.0748
     15 C         141.1042  141.9534  168.2308 C.ar    1  UNL1        0.0233
     16 C         140.2895  143.2072  168.3504 C.3     1  UNL1        0.2352
     17 O         139.9610  143.4099  169.7998 O.3     1  UNL1       -0.4404
     18 C         140.5727  142.2814  170.5760 C.2     1  UNL1        0.3413
     19 O         140.4919  142.0873  172.0612 O.2     1  UNL1       -0.2449
     20 C         138.4082  138.6541  161.0676 C.3     1  UNL1        0.0769
     21 C         137.5323  139.8702  161.0048 C.3     1  UNL1        0.0433
     22 C         137.8330  141.0565  161.8721 C.ar    1  UNL1       -0.0249
     23 C         137.3768  141.0759  163.3009 C.ar    1  UNL1       -0.0043
     24 C         137.6775  142.2622  164.1681 C.ar    1  UNL1        0.0059
     25 C         138.4345  143.4292  163.6066 C.ar    1  UNL1        0.0748
     26 C         138.8907  143.4098  162.1778 C.ar    1  UNL1        0.0233
     27 C         138.5899  142.2234  161.3105 C.ar    1  UNL1       -0.0260
     28 C         139.0461  142.2041  159.8818 C.3     1  UNL1        0.0305
     29 C         139.6124  144.6960  161.9042 C.3     1  UNL1        0.2352
     30 O         139.6022  145.5102  163.1639 O.3     1  UNL1       -0.4404
     31 C         138.8742  144.7274  164.2160 C.2     1  UNL1        0.3413
     32 O         138.6290  145.1656  165.6294 O.2     1  UNL1       -0.2449
@<TRIPOS>BOND
     1     9    10    1
     2    10    11   ar
     3    11     8    1
     4     8     7    1
     5     7     1    1
     6     1     2    1
     7     2     3    1
     8     3     4    1
     9     4    20    1
    10    20    21    1
    11    21    22    1
    12    22    23   ar
    13    23    24   ar
    14    24    25   ar
    15    25    26   ar
    16    26    27   ar
    17    27    28    1
    18    26    29    1
    19    29    30    1
    20    30    31    1
    21    31    32    2
    22     4     5    1
    23     5     6    1
    24    11    12   ar
    25    12    13   ar
    26    13    14   ar
    27    14    15   ar
    28    15    16    1
    29    16    17    1
    30    17    18    1
    31    18    19    2
    32    15    10   ar
    33     6     1    1
    34    18    14    1
    35    27    22   ar
    36    31    25    1
@<TRIPOS>MOLECULE
*****
 32 36 0 0 0
SMALL
GASTEIGER

@<TRIPOS>ATOM
      1 N         140.0949  138.2780  162.7324 N.3     1  UNL1       -0.2700
      2 C         141.2562  139.1476  162.3515 C.3     1  UNL1        0.0897
      3 C         142.4095  139.3147  163.2961 C.3     1  UNL1        0.0897
      4 N         142.4014  138.6123  164.6214 N.3     1  UNL1       -0.2700
      5 C         141.2400  137.7427  165.0022 C.3     1  UNL1        0.0897
      6 C         140.0868  137.5756  164.0577 C.3     1  UNL1        0.0897
      7 C         138.9416  138.1109  161.7879 C.3     1  UNL1        0.0769
      8 C         137.7886  139.0693  161.8350 C.3     1  UNL1        0.0433
      9 C         137.8919  140.3325  164.5542 C.3     1  UNL1        0.0305
     10 C         138.0939  141.1733  163.3284 C.ar    1  UNL1       -0.0260
     11 C         138.0422  140.5417  161.9688 C.ar    1  UNL1       -0.0249
     12 C         138.2442  141.3823  160.7431 C.ar    1  UNL1       -0.0043
     13 C         138.4977  142.8547  160.8769 C.ar    1  UNL1        0.0059
     14 C         138.5494  143.4863  162.2364 C.ar    1  UNL1        0.0748
     15 C         138.3474  142.6456  163.4622 C.ar    1  UNL1        0.0233
     16 C         138.4526  143.5411  164.6610 C.3     1  UNL1        0.2352
     17 O         138.7195  144.9352  164.1761 O.3     1  UNL1       -0.4404
     18 C         138.7794  144.9014  162.6776 C.2     1  UNL1        0.3413
     19 O         139.0259  146.0763  161.7784 O.2     1  UNL1       -0.2449
     20 C         143.5547  138.7794  165.5658 C.3     1  UNL1        0.0769
     21 C         143.3244  138.7290  167.0472 C.3     1  UNL1        0.0433
     22 C         142.6184  139.8596  167.7352 C.ar    1  UNL1       -0.0249
     23 C         142.2521  141.0941  166.9660 C.ar    1  UNL1       -0.0043
     24 C         141.5462  142.2247  167.6541 C.ar    1  UNL1        0.0059
     25 C         141.2065  142.1207  169.1115 C.ar    1  UNL1        0.0748
     26 C         141.5728  140.8862  169.8807 C.ar    1  UNL1        0.0233
     27 C         142.2788  139.7556  169.1926 C.ar    1  UNL1       -0.0260
     28 C         142.6450  138.5211  169.9618 C.3     1  UNL1        0.0305
     29 C         141.1118  141.0684  171.2964 C.3     1  UNL1        0.2352
     30 O         140.4607  142.4155  171.4021 O.3     1  UNL1       -0.4404
     31 C         140.5192  143.0659  170.0518 C.2     1  UNL1        0.3413
     32 O         139.9843  144.4231  169.7030 O.2     1  UNL1       -0.2449
@<TRIPOS>BOND
     1     9    10    1
     2    10    11   ar
     3    11     8    1
     4     8     7    1
     5     7     1    1
     6     1     2    1
     7     2     3    1
     8     3     4    1
     9     4    20    1
    10    20    21    1
    11    21    22    1
    12    22    23   ar
    13    23    24   ar
    14    24    25   ar
    15    25    26   ar
    16    26    27   ar
    17    27    28    1
    18    26    29    1
    19    29    30    1
    20    30    31    1
    21    31    32    2
    22     4     5    1
    23     5     6    1
    24    11    12   ar
    25    12    13   ar
    26    13    14   ar
    27    14    15   ar
    28    15    16    1
    29    16    17    1
    30    17    18    1
    31    18    19    2
    32    15    10   ar
    33     6     1    1
    34    18    14    1
    35    27    22   ar
    36    31    25    1
@<TRIPOS>MOLECULE
*****
 32 36 0 0 0
SMALL
GASTEIGER

@<TRIPOS>ATOM
      1 N         142.1056  137.9593  164.2182 N.3     1  UNL1       -0.2700
      2 C         142.8855  138.4853  165.3865 C.3     1  UNL1        0.0897
      3 C         143.9597  139.5099  165.1710 C.3     1  UNL1        0.0897
      4 N         144.2539  140.0085  163.7873 N.3     1  UNL1       -0.2700
      5 C         143.4740  139.4825  162.6189 C.3     1  UNL1        0.0897
      6 C         142.3999  138.4579  162.8344 C.3     1  UNL1        0.0897
      7 C         141.0315  136.9347  164.4335 C.3     1  UNL1        0.0769
      8 C         139.6616  137.3643  164.8683 C.3     1  UNL1        0.0433
      9 C         138.3654  138.2794  162.3221 C.3     1  UNL1        0.0305
     10 C         138.5919  139.2531  163.4405 C.ar    1  UNL1       -0.0260
     11 C         139.2400  138.7956  164.7136 C.ar    1  UNL1       -0.0249
     12 C         139.4665  139.7691  165.8319 C.ar    1  UNL1       -0.0043
     13 C         139.0449  141.2003  165.6773 C.ar    1  UNL1        0.0059
     14 C         138.3968  141.6579  164.4042 C.ar    1  UNL1        0.0748
     15 C         138.1703  140.6843  163.2858 C.ar    1  UNL1        0.0233
     16 C         137.5130  141.4205  162.1563 C.3     1  UNL1        0.2352
     17 O         137.3333  142.8491  162.5766 O.3     1  UNL1       -0.4404
     18 C         137.8795  142.9959  163.9659 C.2     1  UNL1        0.3413
     19 O         137.9040  144.2589  164.7747 O.2     1  UNL1       -0.2449
     20 C         145.3281  141.0331  163.5719 C.3     1  UNL1        0.0769
     21 C         145.0588  142.4772  163.8753 C.3     1  UNL1        0.0433
     22 C         143.8213  143.1372  163.3435 C.ar    1  UNL1       -0.0249
     23 C         142.7881  143.6689  164.2920 C.ar    1  UNL1       -0.0043
     24 C         141.5505  144.3288  163.7600 C.ar    1  UNL1        0.0059
     25 C         141.3462  144.4571  162.2795 C.ar    1  UNL1        0.0748
     26 C         142.3794  143.9254  161.3310 C.ar    1  UNL1        0.0233
     27 C         143.6170  143.2654  161.8630 C.ar    1  UNL1       -0.0260
     28 C         144.6502  142.7337  160.9144 C.3     1  UNL1        0.0305
     29 C         141.9070  144.1939  159.9329 C.3     1  UNL1        0.2352
     30 O         140.5818  144.8915  160.0174 O.3     1  UNL1       -0.4404
     31 C         140.2352  145.0542  161.4676 C.2     1  UNL1        0.3413
     32 O         138.9953  145.7004  162.0107 O.2     1  UNL1       -0.2449
@<TRIPOS>BOND
     1     9    10    1
     2    10    11   ar
     3    11     8    1
     4     8     7    1
     5     7     1    1
     6     1     2    1
     7     2     3    1
     8     3     4    1
     9     4    20    1
    10    20    21    1
    11    21    22    1
    12    22    23   ar
    13    23    24   ar
    14    24    25   ar
    15    25    26   ar
    16    26    27   ar
    17    27    28    1
    18    26    29    1
    19    29    30    1
    20    30    31    1
    21    31    32    2
    22     4     5    1
    23     5     6    1
    24    11    12   ar
    25    12    13   ar
    26    13    14   ar
    27    14    15   ar
    28    15    16    1
    29    16    17    1
    30    17    18    1
    31    18    19    2
    32    15    10   ar
    33     6     1    1
    34    18    14    1
    35    27    22   ar
    36    31    25    1
@<TRIPOS>MOLECULE
*****
 32 36 0 0 0
SMALL
GASTEIGER

@<TRIPOS>ATOM
      1 N         143.8549  139.1506  164.0380 N.3     1  UNL1       -0.2700
      2 C         143.0017  138.6405  162.9146 C.3     1  UNL1        0.0897
      3 C         141.6222  138.1228  163.1960 C.3     1  UNL1        0.0897
      4 N         141.0960  138.1151  164.6007 N.3     1  UNL1       -0.2700
      5 C         141.9493  138.6251  165.7240 C.3     1  UNL1        0.0897
      6 C         143.3287  139.1429  165.4426 C.3     1  UNL1        0.0897
      7 C         145.2343  139.6683  163.7567 C.3     1  UNL1        0.0769
      8 C         145.4856  141.1464  163.7103 C.3     1  UNL1        0.0433
      9 C         144.3384  143.4108  165.3093 C.3     1  UNL1        0.0305
     10 C         143.8957  143.1932  163.8926 C.ar    1  UNL1       -0.0260
     11 C         144.4694  142.0610  163.0931 C.ar    1  UNL1       -0.0249
     12 C         144.0268  141.8434  161.6766 C.ar    1  UNL1       -0.0043
     13 C         143.0106  142.7580  161.0594 C.ar    1  UNL1        0.0059
     14 C         142.4370  143.8901  161.8589 C.ar    1  UNL1        0.0748
     15 C         142.8795  144.1078  163.2755 C.ar    1  UNL1        0.0233
     16 C         142.1434  145.2989  163.8133 C.3     1  UNL1        0.2352
     17 O         141.2458  145.8174  162.7291 O.3     1  UNL1       -0.4404
     18 C         141.4272  144.9467  161.5212 C.2     1  UNL1        0.3413
     19 O         140.7227  145.1050  160.2065 O.2     1  UNL1       -0.2449
     20 C         139.7166  137.5973  164.8820 C.3     1  UNL1        0.0769
     21 C         138.6707  138.5153  165.4417 C.3     1  UNL1        0.0433
     22 C         138.5374  139.9121  164.9117 C.ar    1  UNL1       -0.0249
     23 C         137.8933  140.1501  163.5781 C.ar    1  UNL1       -0.0043
     24 C         137.7601  141.5470  163.0481 C.ar    1  UNL1        0.0059
     25 C         138.2711  142.7060  163.8516 C.ar    1  UNL1        0.0748
     26 C         138.9153  142.4680  165.1852 C.ar    1  UNL1        0.0233
     27 C         139.0485  141.0711  165.7152 C.ar    1  UNL1       -0.0260
     28 C         139.6926  140.8332  167.0487 C.3     1  UNL1        0.0305
     29 C         139.3218  143.7979  165.7475 C.3     1  UNL1        0.2352
     30 O         138.9288  144.8577  164.7614 O.3     1  UNL1       -0.4404
     31 C         138.2795  144.1829  163.5897 C.2     1  UNL1        0.3413
     32 O         137.7343  144.8652  162.3703 O.2     1  UNL1       -0.2449
@<TRIPOS>BOND
     1     9    10    1
     2    10    11   ar
     3    11     8    1
     4     8     7    1
     5     7     1    1
     6     1     2    1
     7     2     3    1
     8     3     4    1
     9     4    20    1
    10    20    21    1
    11    21    22    1
    12    22    23   ar
    13    23    24   ar
    14    24    25   ar
    15    25    26   ar
    16    26    27   ar
    17    27    28    1
    18    26    29    1
    19    29    30    1
    20    30    31    1
    21    31    32    2
    22     4     5    1
    23     5     6    1
    24    11    12   ar
    25    12    13   ar
    26    13    14   ar
    27    14    15   ar
    28    15    16    1
    29    16    17    1
    30    17    18    1
    31    18    19    2
    32    15    10   ar
    33     6     1    1
    34    18    14    1
    35    27    22   ar
    36    31    25    1
@<TRIPOS>MOLECULE
*****
 32 36 0 0 0
SMALL
GASTEIGER

@<TRIPOS>ATOM
      1 N         139.1030  142.9254  162.0169 N.3     1  UNL1       -0.2700
      2 C         139.3510  141.4633  161.7917 C.3     1  UNL1        0.0897
      3 C         139.0472  140.4749  162.8784 C.3     1  UNL1        0.0897
      4 N         138.4953  140.9486  164.1902 N.3     1  UNL1       -0.2700
      5 C         138.2472  142.4108  164.4154 C.3     1  UNL1        0.0897
      6 C         138.5511  143.3991  163.3288 C.3     1  UNL1        0.0897
      7 C         139.4068  143.9138  160.9303 C.3     1  UNL1        0.0769
      8 C         140.7969  144.4559  160.7768 C.3     1  UNL1        0.0433
      9 C         142.7798  142.2104  160.6147 C.3     1  UNL1        0.0305
     10 C         142.7941  143.1400  161.7919 C.ar    1  UNL1       -0.0260
     11 C         141.8026  144.2628  161.8730 C.ar    1  UNL1       -0.0249
     12 C         141.8168  145.1924  163.0500 C.ar    1  UNL1       -0.0043
     13 C         142.8224  144.9993  164.1461 C.ar    1  UNL1        0.0059
     14 C         143.8138  143.8766  164.0651 C.ar    1  UNL1        0.0748
     15 C         143.7997  142.9470  162.8880 C.ar    1  UNL1        0.0233
     16 C         144.8918  141.9372  163.0816 C.3     1  UNL1        0.2352
     17 O         145.5810  142.2428  164.3784 O.3     1  UNL1       -0.4404
     18 C         144.9148  143.4414  164.9863 C.2     1  UNL1        0.3413
     19 O         145.2846  144.0908  166.2869 O.2     1  UNL1       -0.2449
     20 C         138.1915  139.9602  165.2768 C.3     1  UNL1        0.0769
     21 C         139.3114  139.3088  166.0328 C.3     1  UNL1        0.0433
     22 C         139.9569  140.0251  167.1817 C.ar    1  UNL1       -0.0249
     23 C         139.3296  139.9768  168.5434 C.ar    1  UNL1       -0.0043
     24 C         139.9752  140.6931  169.6924 C.ar    1  UNL1        0.0059
     25 C         141.2481  141.4577  169.4797 C.ar    1  UNL1        0.0748
     26 C         141.8754  141.5060  168.1180 C.ar    1  UNL1        0.0233
     27 C         141.2298  140.7896  166.9690 C.ar    1  UNL1       -0.0260
     28 C         141.8571  140.8379  165.6074 C.3     1  UNL1        0.0305
     29 C         143.1226  142.3340  168.2114 C.3     1  UNL1        0.2352
     30 O         143.2661  142.7975  169.6307 O.3     1  UNL1       -0.4404
     31 C         142.1076  142.2560  170.4146 C.2     1  UNL1        0.3413
     32 O         141.8533  142.4742  171.8766 O.2     1  UNL1       -0.2449
@<TRIPOS>BOND
     1     9    10    1
     2    10    11   ar
     3    11     8    1
     4     8     7    1
     5     7     1    1
     6     1     2    1
     7     2     3    1
     8     3     4    1
     9     4    20    1
    10    20    21    1
    11    21    22    1
    12    22    23   ar
    13    23    24   ar
    14    24    25   ar
    15    25    26   ar
    16    26    27   ar
    17    27    28    1
    18    26    29    1
    19    29    30    1
    20    30    31    1
    21    31    32    2
    22     4     5    1
    23     5     6    1
    24    11    12   ar
    25    12    13   ar
    26    13    14   ar
    27    14    15   ar
    28    15    16    1
    29    16    17    1
    30    17    18    1
    31    18    19    2
    32    15    10   ar
    33     6     1    1
    34    18    14    1
    35    27    22   ar
    36    31    25    1
@<TRIPOS>MOLECULE
*****
 32 36 0 0 0
SMALL
GASTEIGER

@<TRIPOS>ATOM
      1 N         139.2662  138.9276  164.6370 N.3     1  UNL1       -0.2700
      2 C         140.0393  137.6500  164.7780 C.3     1  UNL1        0.0897
      3 C         141.0628  137.2751  163.7474 C.3     1  UNL1        0.0897
      4 N         141.3132  138.1779  162.5759 N.3     1  UNL1       -0.2700
      5 C         140.5400  139.4556  162.4350 C.3     1  UNL1        0.0897
      6 C         139.5165  139.8304  163.4656 C.3     1  UNL1        0.0897
      7 C         138.2427  139.3026  165.6675 C.3     1  UNL1        0.0769
      8 C         138.5602  139.1596  167.1266 C.3     1  UNL1        0.0433
      9 C         138.3528  140.1021  169.9671 C.3     1  UNL1        0.0305
     10 C         139.5695  140.4323  169.1543 C.ar    1  UNL1       -0.0260
     11 C         139.6732  139.9611  167.7340 C.ar    1  UNL1       -0.0249
     12 C         140.8898  140.2912  166.9212 C.ar    1  UNL1       -0.0043
     13 C         142.0028  141.0926  167.5286 C.ar    1  UNL1        0.0059
     14 C         141.8992  141.5639  168.9488 C.ar    1  UNL1        0.0748
     15 C         140.6825  141.2338  169.7617 C.ar    1  UNL1        0.0233
     16 C         140.8607  141.8306  171.1263 C.3     1  UNL1        0.2352
     17 O         142.1875  142.5296  171.1567 O.3     1  UNL1       -0.4404
     18 C         142.8294  142.3648  169.8110 C.2     1  UNL1        0.3413
     19 O         144.1665  142.9058  169.3998 O.2     1  UNL1       -0.2449
     20 C         142.3366  137.8030  161.5455 C.3     1  UNL1        0.0769
     21 C         143.6870  138.4560  161.5573 C.3     1  UNL1        0.0433
     22 C         143.9157  139.6908  162.3776 C.ar    1  UNL1       -0.0249
     23 C         144.3239  139.5708  163.8160 C.ar    1  UNL1       -0.0043
     24 C         144.5525  140.8057  164.6362 C.ar    1  UNL1        0.0059
     25 C         144.3730  142.1606  164.0181 C.ar    1  UNL1        0.0748
     26 C         143.9648  142.2806  162.5797 C.ar    1  UNL1        0.0233
     27 C         143.7361  141.0457  161.7594 C.ar    1  UNL1       -0.0260
     28 C         143.3279  141.1657  160.3211 C.3     1  UNL1        0.0305
     29 C         143.8656  143.7397  162.2462 C.3     1  UNL1        0.2352
     30 O         144.2125  144.5214  163.4785 O.3     1  UNL1       -0.4404
     31 C         144.5261  143.5455  164.5735 C.2     1  UNL1        0.3413
     32 O         144.9231  143.8934  165.9776 O.2     1  UNL1       -0.2449
@<TRIPOS>BOND
     1     9    10    1
     2    10    11   ar
     3    11     8    1
     4     8     7    1
     5     7     1    1
     6     1     2    1
     7     2     3    1
     8     3     4    1
     9     4    20    1
    10    20    21    1
    11    21    22    1
    12    22    23   ar
    13    23    24   ar
    14    24    25   ar
    15    25    26   ar
    16    26    27   ar
    17    27    28    1
    18    26    29    1
    19    29    30    1
    20    30    31    1
    21    31    32    2
    22     4     5    1
    23     5     6    1
    24    11    12   ar
    25    12    13   ar
    26    13    14   ar
    27    14    15   ar
    28    15    16    1
    29    16    17    1
    30    17    18    1
    31    18    19    2
    32    15    10   ar
    33     6     1    1
    34    18    14    1
    35    27    22   ar
    36    31    25    1
