@<TRIPOS>MOLECULE
*****
 37 39 0 0 0
SMALL
GASTEIGER

@<TRIPOS>ATOM
      1 C         142.4615  138.8540  162.7096 C.3     1  UNL1        0.1194
      2 C         143.7265  139.3552  162.0783 C.3     1  UNL1        0.0802
      3 N         144.9203  139.6631  162.9328 N.3     1  UNL1       -0.2965
      4 C         144.8491  139.4697  164.4185 C.3     1  UNL1        0.0802
      5 C         143.5842  138.9685  165.0498 C.3     1  UNL1        0.1200
      6 C         142.3904  138.6607  164.1954 C.3     1  UNL1        0.1303
      7 O         141.1254  138.1594  164.8268 O.3     1  UNL1       -0.3834
      8 H         145.1508  140.6440  162.7742 H       1  UNL1        0.1233
      9 H         141.2479  138.0917  165.7866 H       1  UNL1        0.2104
     10 N         140.8224  139.5240  160.8085 N.am    1  UNL1       -0.3034
     11 C         141.2677  138.5462  161.8552 C.2     1  UNL1        0.2258
     12 O         140.5193  137.2606  162.0474 O.2     1  UNL1       -0.2750
     13 H         141.3136  140.3678  160.6823 H       1  UNL1        0.1495
     14 C         139.6286  139.2161  159.9541 C.3     1  UNL1        0.1011
     15 C         138.2563  139.6127  160.4119 C.3     1  UNL1        0.1615
     16 O         137.7618  139.1814  161.7607 O.3     1  UNL1       -0.3520
     17 C         137.4592  141.4507  162.9890 C.3     1  UNL1        0.0346
     18 C         137.9984  140.0513  162.9596 C.3     1  UNL1        0.1423
     19 C         139.8071  138.5117  158.6418 C.3     1  UNL1        0.0221
     20 C         141.0718  138.6973  157.8570 C.3     1  UNL1        0.0017
     21 C         141.1916  139.8335  156.8850 C.3     1  UNL1        0.0001
     22 C         142.2169  137.7465  158.0441 C.3     1  UNL1        0.0001
     23 C         143.5130  138.7751  166.5356 C.2     1  UNL1        0.2336
     24 O         144.2378  137.6300  167.1785 O.2     1  UNL1       -0.2744
     25 N         142.7169  139.7269  167.3785 N.am    1  UNL1       -0.2454
     26 C         141.9921  140.8720  166.7356 C.ar    1  UNL1        0.1373
     27 C         140.4932  140.9206  166.7621 C.ar    1  UNL1        0.0344
     28 C         139.7684  142.0657  166.1191 C.ar    1  UNL1        0.0001
     29 C         140.5426  143.1623  165.4498 C.ar    1  UNL1       -0.0033
     30 C         142.0416  143.1138  165.4233 C.ar    1  UNL1        0.0960
     31 N         142.7663  141.9686  166.0662 N.ar    1  UNL1       -0.2291
     32 C         139.8178  144.3075  164.8068 C.3     1  UNL1        0.0239
     33 C         140.3413  144.9074  163.5356 C.3     1  UNL1        0.0047
     34 C         138.5696  144.8526  165.4351 C.3     1  UNL1        0.0047
     35 C         142.6457  139.5335  168.8643 C.3     1  UNL1        0.0812
     36 C         142.5312  138.6245  170.0520 C.3     1  UNL1        0.0219
     37 C         142.6368  140.1076  170.2500 C.3     1  UNL1        0.0219
@<TRIPOS>BOND
     1    17    18    1
     2    18    16    1
     3    16    15    1
     4    14    15    1
     5    14    19    1
     6    19    20    1
     7    20    21    1
     8    20    22    1
     9    14    10    1
    10    10    11   am
    11    11    12    2
    12     1    11    1
    13     1     2    1
    14     2     3    1
    15     3     4    1
    16     4     5    1
    17     5    23    1
    18    23    24    2
    19    23    25   am
    20    25    26    1
    21    26    27   ar
    22    27    28   ar
    23    28    29   ar
    24    29    32    1
    25    32    33    1
    26    32    34    1
    27    29    30   ar
    28    30    31   ar
    29    25    35    1
    30    35    36    1
    31    36    37    1
    32     5     6    1
    33     6     7    1
    34     6     1    1
    35    31    26   ar
    36    37    35    1
    37    10    13    1
    38     3     8    1
    39     7     9    1
@<TRIPOS>MOLECULE
*****
 37 39 0 0 0
SMALL
GASTEIGER

@<TRIPOS>ATOM
      1 C         138.6291  139.9799  162.9114 C.3     1  UNL1        0.1194
      2 C         139.0359  138.6576  162.3318 C.3     1  UNL1        0.0802
      3 N         139.2419  137.4756  163.2321 N.3     1  UNL1       -0.2965
      4 C         139.0410  137.6158  164.7119 C.3     1  UNL1        0.0802
      5 C         138.6342  138.9381  165.2915 C.3     1  UNL1        0.1200
      6 C         138.4282  140.1201  164.3913 C.3     1  UNL1        0.1303
      7 O         138.0214  141.4425  164.9709 O.3     1  UNL1       -0.3834
      8 H         140.2032  137.1640  163.0936 H       1  UNL1        0.1233
      9 H         137.9355  141.3608  165.9337 H       1  UNL1        0.2104
     10 N         139.4347  141.4825  160.9511 N.am    1  UNL1       -0.3034
     11 C         138.4231  141.1619  162.0112 C.2     1  UNL1        0.2258
     12 O         137.2056  142.0233  162.1711 O.2     1  UNL1       -0.2750
     13 H         140.2338  140.9172  160.8461 H       1  UNL1        0.1495
     14 C         139.2287  142.6646  160.0509 C.3     1  UNL1        0.1011
     15 C         139.7067  144.0219  160.4740 C.3     1  UNL1        0.1615
     16 O         138.9885  144.7647  161.5614 O.3     1  UNL1       -0.3520
     17 C         139.1339  144.7438  164.1553 C.3     1  UNL1        0.0346
     18 C         139.7107  145.1277  162.8250 C.3     1  UNL1        0.1423
     19 C         138.5447  142.4892  158.7274 C.3     1  UNL1        0.0221
     20 C         139.1512  141.6014  157.6815 C.3     1  UNL1        0.0017
     21 C         140.2006  142.1416  156.7559 C.3     1  UNL1        0.0001
     22 C         138.7082  140.1733  157.5612 C.3     1  UNL1        0.0001
     23 C         138.4333  139.0785  166.7714 C.2     1  UNL1        0.2336
     24 O         137.2343  138.4605  167.4274 O.2     1  UNL1       -0.2744
     25 N         139.4315  139.8368  167.5952 N.am    1  UNL1       -0.2454
     26 C         140.6305  140.4548  166.9390 C.ar    1  UNL1        0.1373
     27 C         141.8418  139.6185  166.6502 C.ar    1  UNL1        0.0344
     28 C         143.0407  140.2365  165.9941 C.ar    1  UNL1        0.0001
     29 C         143.0285  141.6908  165.6268 C.ar    1  UNL1       -0.0033
     30 C         141.8172  142.5271  165.9157 C.ar    1  UNL1        0.0960
     31 N         140.6183  141.9091  166.5718 N.ar    1  UNL1       -0.2291
     32 C         144.2275  142.3088  164.9707 C.3     1  UNL1        0.0239
     33 C         145.1173  141.4752  164.0970 C.3     1  UNL1        0.0047
     34 C         144.5367  143.7603  165.1883 C.3     1  UNL1        0.0047
     35 C         139.2306  139.9771  169.0750 C.3     1  UNL1        0.0812
     36 C         139.7948  140.0198  170.4642 C.3     1  UNL1        0.0219
     37 C         138.3187  140.1775  170.2489 C.3     1  UNL1        0.0219
@<TRIPOS>BOND
     1    17    18    1
     2    18    16    1
     3    16    15    1
     4    14    15    1
     5    14    19    1
     6    19    20    1
     7    20    21    1
     8    20    22    1
     9    14    10    1
    10    10    11   am
    11    11    12    2
    12     1    11    1
    13     1     2    1
    14     2     3    1
    15     3     4    1
    16     4     5    1
    17     5    23    1
    18    23    24    2
    19    23    25   am
    20    25    26    1
    21    26    27   ar
    22    27    28   ar
    23    28    29   ar
    24    29    32    1
    25    32    33    1
    26    32    34    1
    27    29    30   ar
    28    30    31   ar
    29    25    35    1
    30    35    36    1
    31    36    37    1
    32     5     6    1
    33     6     7    1
    34     6     1    1
    35    31    26   ar
    36    37    35    1
    37    10    13    1
    38     3     8    1
    39     7     9    1
@<TRIPOS>MOLECULE
*****
 37 39 0 0 0
SMALL
GASTEIGER

@<TRIPOS>ATOM
      1 C         142.3394  138.9279  162.6880 C.3     1  UNL1        0.1194
      2 C         143.6272  139.3071  162.0190 C.3     1  UNL1        0.0802
      3 N         144.8660  139.5136  162.8392 N.3     1  UNL1       -0.2965
      4 C         144.8170  139.3411  164.3284 C.3     1  UNL1        0.0802
      5 C         143.5292  138.9619  164.9974 C.3     1  UNL1        0.1200
      6 C         142.2903  138.7553  164.1772 C.3     1  UNL1        0.1303
      7 O         141.0025  138.3762  164.8464 O.3     1  UNL1       -0.3834
      8 H         145.1797  140.4682  162.6635 H       1  UNL1        0.1233
      9 H         141.1437  138.3064  165.8035 H       1  UNL1        0.2104
     10 N         140.6557  139.7789  160.9017 N.am    1  UNL1       -0.3034
     11 C         141.1005  138.7213  161.8679 C.2     1  UNL1        0.2258
     12 O         140.3065  137.4572  162.0139 O.2     1  UNL1       -0.2750
     13 H         141.1769  140.6087  160.8058 H       1  UNL1        0.1495
     14 C         139.4169  139.5724  160.0815 C.3     1  UNL1        0.1011
     15 C         139.5147  138.9568  158.7172 C.3     1  UNL1        0.1615
     16 O         138.6906  139.5009  157.5881 O.3     1  UNL1       -0.3520
     17 C         138.7124  142.0704  157.2041 C.3     1  UNL1        0.0346
     18 C         139.1699  140.6952  156.8174 C.3     1  UNL1        0.1423
     19 C         138.0802  139.9814  160.6258 C.3     1  UNL1        0.0221
     20 C         138.0008  140.8282  161.8613 C.3     1  UNL1        0.0017
     21 C         138.0352  142.3236  161.7491 C.3     1  UNL1        0.0001
     22 C         137.8869  140.1796  163.2091 C.3     1  UNL1        0.0001
     23 C         143.4801  138.7893  166.4867 C.2     1  UNL1        0.2336
     24 O         144.1954  137.6399  167.1325 O.2     1  UNL1       -0.2744
     25 N         142.7157  139.7662  167.3301 N.am    1  UNL1       -0.2454
     26 C         142.0003  140.9157  166.6842 C.ar    1  UNL1        0.1373
     27 C         142.7843  142.0243  166.0470 C.ar    1  UNL1        0.0344
     28 C         142.0690  143.1737  165.4012 C.ar    1  UNL1        0.0001
     29 C         140.5696  143.2144  165.3926 C.ar    1  UNL1       -0.0033
     30 C         139.7855  142.1058  166.0298 C.ar    1  UNL1        0.0960
     31 N         140.5009  140.9564  166.6757 N.ar    1  UNL1       -0.2291
     32 C         139.8542  144.3639  164.7467 C.3     1  UNL1        0.0239
     33 C         140.4695  145.0658  163.5726 C.3     1  UNL1        0.0047
     34 C         138.5236  144.8114  165.2751 C.3     1  UNL1        0.0047
     35 C         142.6666  139.5937  168.8193 C.3     1  UNL1        0.0812
     36 C         142.5757  138.7009  170.0213 C.3     1  UNL1        0.0219
     37 C         142.6724  140.1875  170.1967 C.3     1  UNL1        0.0219
@<TRIPOS>BOND
     1    17    18    1
     2    18    16    1
     3    16    15    1
     4    14    15    1
     5    14    19    1
     6    19    20    1
     7    20    21    1
     8    20    22    1
     9    14    10    1
    10    10    11   am
    11    11    12    2
    12     1    11    1
    13     1     2    1
    14     2     3    1
    15     3     4    1
    16     4     5    1
    17     5    23    1
    18    23    24    2
    19    23    25   am
    20    25    26    1
    21    26    27   ar
    22    27    28   ar
    23    28    29   ar
    24    29    32    1
    25    32    33    1
    26    32    34    1
    27    29    30   ar
    28    30    31   ar
    29    25    35    1
    30    35    36    1
    31    36    37    1
    32     5     6    1
    33     6     7    1
    34     6     1    1
    35    31    26   ar
    36    37    35    1
    37    10    13    1
    38     3     8    1
    39     7     9    1
@<TRIPOS>MOLECULE
*****
 37 39 0 0 0
SMALL
GASTEIGER

@<TRIPOS>ATOM
      1 C         143.4984  142.8768  162.0754 C.3     1  UNL1        0.1194
      2 C         144.6807  142.1210  161.5452 C.3     1  UNL1        0.0802
      3 N         145.7450  141.6381  162.4854 N.3     1  UNL1       -0.2965
      4 C         145.6271  141.9108  163.9556 C.3     1  UNL1        0.0802
      5 C         144.4449  142.6666  164.4857 C.3     1  UNL1        0.1200
      6 C         143.3805  143.1496  163.5456 C.3     1  UNL1        0.1303
      7 O         142.1982  143.9053  164.0758 O.3     1  UNL1       -0.3834
      8 H         146.6223  142.0576  162.1775 H       1  UNL1        0.1233
      9 H         142.2765  143.9942  165.0385 H       1  UNL1        0.2104
     10 N         142.2672  144.8288  160.8822 N.am    1  UNL1       -0.3034
     11 C         142.4340  143.3598  161.1352 C.2     1  UNL1        0.2258
     12 O         141.5365  142.3737  160.4482 O.2     1  UNL1       -0.2750
     13 H         142.8563  145.4760  161.3331 H       1  UNL1        0.1495
     14 C         141.2028  145.3118  159.9420 C.3     1  UNL1        0.1011
     15 C         139.8102  145.5511  160.4451 C.3     1  UNL1        0.1615
     16 O         138.9952  144.4064  160.9698 O.3     1  UNL1       -0.3520
     17 C         137.7571  144.2492  163.2485 C.3     1  UNL1        0.0346
     18 C         139.0071  144.0869  162.4353 C.3     1  UNL1        0.1423
     19 C         141.5312  145.5555  158.4988 C.3     1  UNL1        0.0221
     20 C         141.6118  144.4023  157.5429 C.3     1  UNL1        0.0017
     21 C         140.4186  144.0311  156.7132 C.3     1  UNL1        0.0001
     22 C         142.8857  143.6203  157.4168 C.3     1  UNL1        0.0001
     23 C         144.3269  142.9394  165.9560 C.2     1  UNL1        0.2336
     24 O         145.1750  144.0004  166.5924 O.2     1  UNL1       -0.2744
     25 N         143.3609  142.1511  166.7900 N.am    1  UNL1       -0.2454
     26 C         142.5129  141.0900  166.1536 C.ar    1  UNL1        0.1373
     27 C         143.0211  139.6821  166.0558 C.ar    1  UNL1        0.0344
     28 C         142.1731  138.6211  165.4195 C.ar    1  UNL1        0.0001
     29 C         140.8168  138.9679  164.8808 C.ar    1  UNL1       -0.0033
     30 C         140.3085  140.3758  164.9785 C.ar    1  UNL1        0.0960
     31 N         141.1566  141.4368  165.6149 N.ar    1  UNL1       -0.2291
     32 C         139.9687  137.9068  164.2444 C.3     1  UNL1        0.0239
     33 C         140.2391  137.4770  162.8330 C.3     1  UNL1        0.0047
     34 C         138.8503  137.2757  165.0194 C.3     1  UNL1        0.0047
     35 C         143.2430  142.4238  168.2602 C.3     1  UNL1        0.0812
     36 C         142.4154  142.8285  169.4440 C.3     1  UNL1        0.0219
     37 C         143.8661  142.4915  169.6229 C.3     1  UNL1        0.0219
@<TRIPOS>BOND
     1    17    18    1
     2    18    16    1
     3    16    15    1
     4    14    15    1
     5    14    19    1
     6    19    20    1
     7    20    21    1
     8    20    22    1
     9    14    10    1
    10    10    11   am
    11    11    12    2
    12     1    11    1
    13     1     2    1
    14     2     3    1
    15     3     4    1
    16     4     5    1
    17     5    23    1
    18    23    24    2
    19    23    25   am
    20    25    26    1
    21    26    27   ar
    22    27    28   ar
    23    28    29   ar
    24    29    32    1
    25    32    33    1
    26    32    34    1
    27    29    30   ar
    28    30    31   ar
    29    25    35    1
    30    35    36    1
    31    36    37    1
    32     5     6    1
    33     6     7    1
    34     6     1    1
    35    31    26   ar
    36    37    35    1
    37    10    13    1
    38     3     8    1
    39     7     9    1
@<TRIPOS>MOLECULE
*****
 37 39 0 0 0
SMALL
GASTEIGER

@<TRIPOS>ATOM
      1 C         138.8114  140.0290  163.0381 C.3     1  UNL1        0.1194
      2 C         139.0839  138.6774  162.4476 C.3     1  UNL1        0.0802
      3 N         139.1855  137.4758  163.3397 N.3     1  UNL1       -0.2965
      4 C         139.0147  137.6259  164.8223 C.3     1  UNL1        0.0802
      5 C         138.7422  138.9775  165.4128 C.3     1  UNL1        0.1200
      6 C         138.6406  140.1791  164.5207 C.3     1  UNL1        0.1303
      7 O         138.3680  141.5308  165.1113 O.3     1  UNL1       -0.3834
      8 H         140.1112  137.0747  163.1890 H       1  UNL1        0.1233
      9 H         138.2850  141.4520  166.0745 H       1  UNL1        0.2104
     10 N         139.8827  142.1531  161.9937 N.am    1  UNL1       -0.3034
     11 C         138.7097  141.2306  162.1460 C.2     1  UNL1        0.2258
     12 O         137.4351  141.5097  161.4061 O.2     1  UNL1       -0.2750
     13 H         140.7192  141.9699  162.4793 H       1  UNL1        0.1495
     14 C         139.7810  143.3547  161.1016 C.3     1  UNL1        0.1011
     15 C         139.7659  143.1834  159.6116 C.3     1  UNL1        0.1615
     16 O         140.2200  141.8909  159.0005 O.3     1  UNL1       -0.3520
     17 C         139.1088  139.5511  158.7991 C.3     1  UNL1        0.0346
     18 C         139.2235  140.9778  158.3502 C.3     1  UNL1        0.1423
     19 C         139.6945  144.7276  161.6997 C.3     1  UNL1        0.0221
     20 C         140.1763  144.9675  163.0998 C.3     1  UNL1        0.0017
     21 C         139.2158  144.8816  164.2486 C.3     1  UNL1        0.0001
     22 C         141.6188  145.2934  163.3510 C.3     1  UNL1        0.0001
     23 C         138.5714  139.1276  166.8955 C.2     1  UNL1        0.2336
     24 O         137.3908  138.5063  167.5812 O.2     1  UNL1       -0.2744
     25 N         139.5812  139.8990  167.6925 N.am    1  UNL1       -0.2454
     26 C         140.7618  140.5203  167.0068 C.ar    1  UNL1        0.1373
     27 C         141.9300  139.6690  166.6062 C.ar    1  UNL1        0.0344
     28 C         143.1106  140.2903  165.9205 C.ar    1  UNL1        0.0001
     29 C         143.1230  141.7629  165.6355 C.ar    1  UNL1       -0.0033
     30 C         141.9548  142.6142  166.0362 C.ar    1  UNL1        0.0960
     31 N         140.7743  141.9929  166.7218 N.ar    1  UNL1       -0.2291
     32 C         144.3037  142.3842  164.9498 C.3     1  UNL1        0.0239
     33 C         145.1855  141.5483  164.0702 C.3     1  UNL1        0.0047
     34 C         144.6024  143.8413  165.1437 C.3     1  UNL1        0.0047
     35 C         139.4104  140.0491  169.1752 C.3     1  UNL1        0.0812
     36 C         138.5326  140.3208  170.3608 C.3     1  UNL1        0.0219
     37 C         139.9923  140.0375  170.5576 C.3     1  UNL1        0.0219
@<TRIPOS>BOND
     1    17    18    1
     2    18    16    1
     3    16    15    1
     4    14    15    1
     5    14    19    1
     6    19    20    1
     7    20    21    1
     8    20    22    1
     9    14    10    1
    10    10    11   am
    11    11    12    2
    12     1    11    1
    13     1     2    1
    14     2     3    1
    15     3     4    1
    16     4     5    1
    17     5    23    1
    18    23    24    2
    19    23    25   am
    20    25    26    1
    21    26    27   ar
    22    27    28   ar
    23    28    29   ar
    24    29    32    1
    25    32    33    1
    26    32    34    1
    27    29    30   ar
    28    30    31   ar
    29    25    35    1
    30    35    36    1
    31    36    37    1
    32     5     6    1
    33     6     7    1
    34     6     1    1
    35    31    26   ar
    36    37    35    1
    37    10    13    1
    38     3     8    1
    39     7     9    1
@<TRIPOS>MOLECULE
*****
 37 39 0 0 0
SMALL
GASTEIGER

@<TRIPOS>ATOM
      1 C         138.8308  140.1268  162.9862 C.3     1  UNL1        0.1194
      2 C         139.1793  138.7991  162.3815 C.3     1  UNL1        0.0802
      3 N         139.3316  137.5921  163.2590 N.3     1  UNL1       -0.2965
      4 C         139.1353  137.7129  164.7412 C.3     1  UNL1        0.0802
      5 C         138.7868  139.0406  165.3459 C.3     1  UNL1        0.1200
      6 C         138.6346  140.2476  164.4684 C.3     1  UNL1        0.1303
      7 O         138.2860  141.5753  165.0731 O.3     1  UNL1       -0.3834
      8 H         140.2783  137.2409  163.1150 H       1  UNL1        0.1233
      9 H         138.1954  141.4792  166.0341 H       1  UNL1        0.2104
     10 N         139.8932  142.0813  161.6441 N.am    1  UNL1       -0.3034
     11 C         138.6786  141.3338  162.1087 C.2     1  UNL1        0.2258
     12 O         137.3117  141.7933  161.6958 O.2     1  UNL1       -0.2750
     13 H         140.7903  141.7798  161.9151 H       1  UNL1        0.1495
     14 C         139.7409  143.2883  160.7666 C.3     1  UNL1        0.1011
     15 C         139.4528  143.1208  159.3041 C.3     1  UNL1        0.1615
     16 O         140.5344  143.3648  158.2939 O.3     1  UNL1       -0.3520
     17 C         140.2938  145.9095  157.8287 C.3     1  UNL1        0.0346
     18 C         140.4117  144.5020  157.3236 C.3     1  UNL1        0.1423
     19 C         139.8768  144.6629  161.3517 C.3     1  UNL1        0.0221
     20 C         140.3200  144.8318  162.7747 C.3     1  UNL1        0.0017
     21 C         141.7735  145.0275  163.0893 C.3     1  UNL1        0.0001
     22 C         139.3096  144.8051  163.8831 C.3     1  UNL1        0.0001
     23 C         138.5905  139.1614  166.8281 C.2     1  UNL1        0.2336
     24 O         137.4091  138.5100  167.4838 O.2     1  UNL1       -0.2744
     25 N         139.5757  139.9336  167.6546 N.am    1  UNL1       -0.2454
     26 C         140.7571  140.5850  166.9989 C.ar    1  UNL1        0.1373
     27 C         141.9784  139.7751  166.6788 C.ar    1  UNL1        0.0344
     28 C         143.1597  140.4265  166.0231 C.ar    1  UNL1        0.0001
     29 C         143.1198  141.8879  165.6875 C.ar    1  UNL1       -0.0033
     30 C         141.8986  142.6979  166.0075 C.ar    1  UNL1        0.0960
     31 N         140.7173  142.0465  166.6632 N.ar    1  UNL1       -0.2291
     32 C         144.3013  142.5394  165.0317 C.3     1  UNL1        0.0239
     33 C         144.7164  143.9224  165.4380 C.3     1  UNL1        0.0047
     34 C         145.0675  141.8078  163.9699 C.3     1  UNL1        0.0047
     35 C         139.3795  140.0544  169.1368 C.3     1  UNL1        0.0812
     36 C         139.9406  140.0304  170.5277 C.3     1  UNL1        0.0219
     37 C         138.4785  140.2877  170.3131 C.3     1  UNL1        0.0219
@<TRIPOS>BOND
     1    17    18    1
     2    18    16    1
     3    16    15    1
     4    14    15    1
     5    14    19    1
     6    19    20    1
     7    20    21    1
     8    20    22    1
     9    14    10    1
    10    10    11   am
    11    11    12    2
    12     1    11    1
    13     1     2    1
    14     2     3    1
    15     3     4    1
    16     4     5    1
    17     5    23    1
    18    23    24    2
    19    23    25   am
    20    25    26    1
    21    26    27   ar
    22    27    28   ar
    23    28    29   ar
    24    29    32    1
    25    32    33    1
    26    32    34    1
    27    29    30   ar
    28    30    31   ar
    29    25    35    1
    30    35    36    1
    31    36    37    1
    32     5     6    1
    33     6     7    1
    34     6     1    1
    35    31    26   ar
    36    37    35    1
    37    10    13    1
    38     3     8    1
    39     7     9    1
@<TRIPOS>MOLECULE
*****
 37 39 0 0 0
SMALL
GASTEIGER

@<TRIPOS>ATOM
      1 C         140.2120  138.6048  164.7476 C.3     1  UNL1        0.1194
      2 C         138.7347  138.4077  164.9170 C.3     1  UNL1        0.0802
      3 N         138.0624  138.8321  166.1890 N.3     1  UNL1       -0.2965
      4 C         138.8674  139.4537  167.2915 C.3     1  UNL1        0.0802
      5 C         140.3447  139.6508  167.1220 C.3     1  UNL1        0.1200
      6 C         141.0170  139.2264  165.8501 C.3     1  UNL1        0.1303
      7 O         142.4943  139.4235  165.6807 O.3     1  UNL1       -0.3834
      8 H         137.6204  138.0003  166.5801 H       1  UNL1        0.1233
      9 H         142.8595  139.8342  166.4800 H       1  UNL1        0.2104
     10 N         141.4808  139.2103  162.5628 N.am    1  UNL1       -0.3034
     11 C         140.8843  138.1804  163.4756 C.2     1  UNL1        0.2258
     12 O         140.9600  136.7260  163.1164 O.2     1  UNL1       -0.2750
     13 H         141.4311  140.1649  162.7985 H       1  UNL1        0.1495
     14 C         142.1531  138.7859  161.2908 C.3     1  UNL1        0.1011
     15 C         143.6438  138.6255  161.2478 C.3     1  UNL1        0.1615
     16 O         144.4843  139.1168  162.3889 O.3     1  UNL1       -0.3520
     17 C         145.4621  141.0867  163.7721 C.3     1  UNL1        0.0346
     18 C         144.7208  140.5872  162.5675 C.3     1  UNL1        0.1423
     19 C         141.3345  138.5218  160.0618 C.3     1  UNL1        0.0221
     20 C         141.9059  138.8070  158.7046 C.3     1  UNL1        0.0017
     21 C         141.9866  140.2196  158.2065 C.3     1  UNL1        0.0001
     22 C         142.3966  137.6796  157.8453 C.3     1  UNL1        0.0001
     23 C         141.1498  140.2724  168.2246 C.2     1  UNL1        0.2336
     24 O         141.3791  139.5199  169.5017 O.2     1  UNL1       -0.2744
     25 N         141.7255  141.6465  168.0499 N.am    1  UNL1       -0.2454
     26 C         141.4961  142.3989  166.7727 C.ar    1  UNL1        0.1373
     27 C         140.1688  143.0473  166.5122 C.ar    1  UNL1        0.0344
     28 C         139.9395  143.7997  165.2351 C.ar    1  UNL1        0.0001
     29 C         141.0374  143.9038  164.2184 C.ar    1  UNL1       -0.0033
     30 C         142.3647  143.2554  164.4788 C.ar    1  UNL1        0.0960
     31 N         142.5940  142.5030  165.7560 N.ar    1  UNL1       -0.2291
     32 C         140.8080  144.6563  162.9411 C.3     1  UNL1        0.0239
     33 C         139.5087  145.3708  162.7146 C.3     1  UNL1        0.0047
     34 C         141.8779  144.6942  161.8905 C.3     1  UNL1        0.0047
     35 C         142.5305  142.2680  169.1524 C.3     1  UNL1        0.0812
     36 C         143.8397  142.4489  169.8618 C.3     1  UNL1        0.0219
     37 C         142.6158  143.1638  170.3525 C.3     1  UNL1        0.0219
@<TRIPOS>BOND
     1    17    18    1
     2    18    16    1
     3    16    15    1
     4    14    15    1
     5    14    19    1
     6    19    20    1
     7    20    21    1
     8    20    22    1
     9    14    10    1
    10    10    11   am
    11    11    12    2
    12     1    11    1
    13     1     2    1
    14     2     3    1
    15     3     4    1
    16     4     5    1
    17     5    23    1
    18    23    24    2
    19    23    25   am
    20    25    26    1
    21    26    27   ar
    22    27    28   ar
    23    28    29   ar
    24    29    32    1
    25    32    33    1
    26    32    34    1
    27    29    30   ar
    28    30    31   ar
    29    25    35    1
    30    35    36    1
    31    36    37    1
    32     5     6    1
    33     6     7    1
    34     6     1    1
    35    31    26   ar
    36    37    35    1
    37    10    13    1
    38     3     8    1
    39     7     9    1
@<TRIPOS>MOLECULE
*****
 37 39 0 0 0
SMALL
GASTEIGER

@<TRIPOS>ATOM
      1 C         138.8809  141.0539  161.3302 C.3     1  UNL1        0.1194
      2 C         138.1489  140.1541  162.2812 C.3     1  UNL1        0.0802
      3 N         138.1197  138.6737  162.0411 N.3     1  UNL1       -0.2965
      4 C         138.8225  138.0931  160.8500 C.3     1  UNL1        0.0802
      5 C         139.5546  138.9929  159.8990 C.3     1  UNL1        0.1200
      6 C         139.5837  140.4732  160.1391 C.3     1  UNL1        0.1303
      7 O         140.3158  141.3730  159.1879 O.3     1  UNL1       -0.3834
      8 H         137.1382  138.4075  161.9626 H       1  UNL1        0.1233
      9 H         140.7108  140.8414  158.4791 H       1  UNL1        0.2104
     10 N         140.1939  143.2060  161.9581 N.am    1  UNL1       -0.3034
     11 C         138.9101  142.5342  161.5702 C.2     1  UNL1        0.2258
     12 O         137.6554  143.3429  161.4225 O.2     1  UNL1       -0.2750
     13 H         141.0174  142.6752  162.0550 H       1  UNL1        0.1495
     14 C         140.2231  144.6863  162.1981 C.3     1  UNL1        0.1011
     15 C         140.6447  145.6162  161.0992 C.3     1  UNL1        0.1615
     16 O         141.6511  145.1672  160.0816 O.3     1  UNL1       -0.3520
     17 C         141.1621  145.8482  157.6226 C.3     1  UNL1        0.0346
     18 C         141.2056  144.8020  158.6967 C.3     1  UNL1        0.1423
     19 C         139.8307  145.2369  163.5372 C.3     1  UNL1        0.0221
     20 C         139.3047  144.3190  164.6006 C.3     1  UNL1        0.0017
     21 C         140.2565  143.5120  165.4329 C.3     1  UNL1        0.0001
     22 C         137.8267  144.2080  164.8316 C.3     1  UNL1        0.0001
     23 C         140.2575  138.4122  158.7078 C.2     1  UNL1        0.2336
     24 O         139.4637  137.9312  157.5294 O.2     1  UNL1       -0.2744
     25 N         141.7541  138.3127  158.6950 N.am    1  UNL1       -0.2454
     26 C         142.5478  138.7937  159.8735 C.ar    1  UNL1        0.1373
     27 C         142.7866  137.8812  161.0398 C.ar    1  UNL1        0.0344
     28 C         143.5803  138.3623  162.2182 C.ar    1  UNL1        0.0001
     29 C         144.1352  139.7558  162.2302 C.ar    1  UNL1       -0.0033
     30 C         143.8965  140.6683  161.0639 C.ar    1  UNL1        0.0960
     31 N         143.1028  140.1872  159.8855 N.ar    1  UNL1       -0.2291
     32 C         144.9289  140.2368  163.4087 C.3     1  UNL1        0.0239
     33 C         145.6065  141.5743  163.3610 C.3     1  UNL1        0.0047
     34 C         145.0451  139.3805  164.6346 C.3     1  UNL1        0.0047
     35 C         142.4570  137.7321  157.5039 C.3     1  UNL1        0.0812
     36 C         142.9191  136.5377  156.7229 C.3     1  UNL1        0.0219
     37 C         143.2124  137.9208  156.2218 C.3     1  UNL1        0.0219
@<TRIPOS>BOND
     1    17    18    1
     2    18    16    1
     3    16    15    1
     4    14    15    1
     5    14    19    1
     6    19    20    1
     7    20    21    1
     8    20    22    1
     9    14    10    1
    10    10    11   am
    11    11    12    2
    12     1    11    1
    13     1     2    1
    14     2     3    1
    15     3     4    1
    16     4     5    1
    17     5    23    1
    18    23    24    2
    19    23    25   am
    20    25    26    1
    21    26    27   ar
    22    27    28   ar
    23    28    29   ar
    24    29    32    1
    25    32    33    1
    26    32    34    1
    27    29    30   ar
    28    30    31   ar
    29    25    35    1
    30    35    36    1
    31    36    37    1
    32     5     6    1
    33     6     7    1
    34     6     1    1
    35    31    26   ar
    36    37    35    1
    37    10    13    1
    38     3     8    1
    39     7     9    1
@<TRIPOS>MOLECULE
*****
 37 39 0 0 0
SMALL
GASTEIGER

@<TRIPOS>ATOM
      1 C         142.9456  139.1088  162.4606 C.3     1  UNL1        0.1194
      2 C         142.0408  137.9935  162.0276 C.3     1  UNL1        0.0802
      3 N         141.4392  137.0757  163.0503 N.3     1  UNL1       -0.2965
      4 C         141.7425  137.2732  164.5060 C.3     1  UNL1        0.0802
      5 C         142.6472  138.3885  164.9389 C.3     1  UNL1        0.1200
      6 C         143.2488  139.3063  163.9163 C.3     1  UNL1        0.1303
      7 O         144.1536  140.4216  164.3493 O.3     1  UNL1       -0.3834
      8 H         141.7414  136.1311  162.8121 H       1  UNL1        0.1233
      9 H         144.2436  140.4084  165.3150 H       1  UNL1        0.2104
     10 N         142.7893  140.3533  160.1854 N.am    1  UNL1       -0.3034
     11 C         143.5471  140.0265  161.4379 C.2     1  UNL1        0.2258
     12 O         144.9064  140.6175  161.6678 O.2     1  UNL1       -0.2750
     13 H         141.8971  139.9654  160.0345 H       1  UNL1        0.1495
     14 C         143.3908  141.2710  159.1627 C.3     1  UNL1        0.1011
     15 C         143.0528  142.7324  159.1752 C.3     1  UNL1        0.1615
     16 O         143.4804  143.5912  160.3283 O.3     1  UNL1       -0.3520
     17 C         142.9583  143.4017  162.8663 C.3     1  UNL1        0.0346
     18 C         142.5495  143.8139  161.4832 C.3     1  UNL1        0.1423
     19 C         144.3304  140.7274  158.1274 C.3     1  UNL1        0.0221
     20 C         143.8730  140.5714  156.7075 C.3     1  UNL1        0.0017
     21 C         144.1311  141.6635  155.7121 C.3     1  UNL1        0.0001
     22 C         143.1573  139.3233  156.2828 C.3     1  UNL1        0.0001
     23 C         142.9505  138.5861  166.3947 C.2     1  UNL1        0.2336
     24 O         143.9750  137.7242  167.0710 O.2     1  UNL1       -0.2744
     25 N         142.2292  139.6455  167.1740 N.am    1  UNL1       -0.2454
     26 C         141.2047  140.5074  166.4975 C.ar    1  UNL1        0.1373
     27 C         141.5175  141.9413  166.1875 C.ar    1  UNL1        0.0344
     28 C         140.4930  142.8031  165.5112 C.ar    1  UNL1        0.0001
     29 C         139.1556  142.2310  165.1448 C.ar    1  UNL1       -0.0033
     30 C         138.8428  140.7972  165.4547 C.ar    1  UNL1        0.0960
     31 N         139.8673  139.9354  166.1311 N.ar    1  UNL1       -0.2291
     32 C         138.1311  143.0929  164.4683 C.3     1  UNL1        0.0239
     33 C         137.8338  144.4632  165.0013 C.3     1  UNL1        0.0047
     34 C         137.4038  142.5846  163.2589 C.3     1  UNL1        0.0047
     35 C         142.5325  139.8431  168.6296 C.3     1  UNL1        0.0812
     36 C         142.5750  139.3113  170.0315 C.3     1  UNL1        0.0219
     37 C         143.0151  140.7171  169.7490 C.3     1  UNL1        0.0219
@<TRIPOS>BOND
     1    17    18    1
     2    18    16    1
     3    16    15    1
     4    14    15    1
     5    14    19    1
     6    19    20    1
     7    20    21    1
     8    20    22    1
     9    14    10    1
    10    10    11   am
    11    11    12    2
    12     1    11    1
    13     1     2    1
    14     2     3    1
    15     3     4    1
    16     4     5    1
    17     5    23    1
    18    23    24    2
    19    23    25   am
    20    25    26    1
    21    26    27   ar
    22    27    28   ar
    23    28    29   ar
    24    29    32    1
    25    32    33    1
    26    32    34    1
    27    29    30   ar
    28    30    31   ar
    29    25    35    1
    30    35    36    1
    31    36    37    1
    32     5     6    1
    33     6     7    1
    34     6     1    1
    35    31    26   ar
    36    37    35    1
    37    10    13    1
    38     3     8    1
    39     7     9    1
