@<TRIPOS>MOLECULE
*****
 26 29 0 0 0
SMALL
GASTEIGER

@<TRIPOS>ATOM
      1 C         142.7401  140.2541  162.9964 C.ar    1  UNL1        0.0872
      2 C         142.2686  141.3286  162.0620 C.ar    1  UNL1        0.0508
      3 C         141.3246  142.3868  162.5512 C.ar    1  UNL1        0.1347
      4 N         140.8522  142.3705  163.9747 N.ar    1  UNL1       -0.2122
      5 C         141.3237  141.2960  164.9091 C.ar    1  UNL1        0.1596
      6 N         142.2676  140.2379  164.4201 N.ar    1  UNL1       -0.2293
      7 C         140.8512  141.2797  166.3327 C.2     1  UNL1        0.0181
      8 C         140.3211  140.0113  166.9326 C.2     1  UNL1        0.0006
      9 C         139.8486  139.9951  168.3562 C.2     1  UNL1        0.0186
     10 C         139.9063  141.2474  169.1798 C.2     1  UNL1        0.0777
     11 N         139.5147  141.5341  170.5991 N.2     1  UNL1       -0.2442
     12 C         139.8028  142.9798  170.8764 C.2     1  UNL1        0.0985
     13 C         140.3724  143.5866  169.6285 C.2     1  UNL1        0.0182
     14 C         140.4364  142.5159  168.5799 C.2     1  UNL1        0.0015
     15 C         140.9088  142.5320  167.1564 C.3     1  UNL1        0.0573
     16 N         140.8531  143.4613  161.6167 N.pl3   1  UNL1       -0.2880
     17 C         140.8231  143.2095  160.1384 C.3     1  UNL1        0.1242
     18 C         140.3517  144.2839  159.2039 C.3     1  UNL1        0.1636
     19 O         139.9102  145.6103  159.7479 O.3     1  UNL1       -0.3501
     20 C         139.9401  145.8622  161.2263 C.3     1  UNL1        0.1636
     21 C         140.4117  144.7876  162.1608 C.3     1  UNL1        0.1242
     22 C         143.6839  139.1960  162.5074 C.3     1  UNL1        0.1963
     23 C         142.9208  137.4651  160.1790 C.3     1  UNL1        0.1765
     24 S         143.3024  138.3305  161.3431 S.O2    1  UNL1       -0.0025
     25 O         144.4048  138.9400  160.5288 O.2     1  UNL1       -0.1726
     26 O         142.1999  137.7210  162.1575 O.2     1  UNL1       -0.1726
@<TRIPOS>BOND
     1    23    24    1
     2    24    25    2
     3    24    26    2
     4    24    22    1
     5    22     1    1
     6     1     2   ar
     7     2     3   ar
     8     3    16    1
     9    16    17    1
    10    17    18    1
    11    18    19    1
    12    19    20    1
    13    20    21    1
    14     3     4   ar
    15     4     5   ar
    16     5     7    1
    17     7     8    2
    18     8     9    1
    19     9    10    2
    20    10    11    1
    21    11    12    2
    22    12    13    1
    23    13    14    2
    24    14    15    1
    25     5     6   ar
    26     6     1   ar
    27    21    16    1
    28    15     7    1
    29    14    10    1
@<TRIPOS>MOLECULE
*****
 26 29 0 0 0
SMALL
GASTEIGER

@<TRIPOS>ATOM
      1 C         142.2071  139.8451  162.9736 C.ar    1  UNL1        0.0872
      2 C         141.8328  140.9548  162.0363 C.ar    1  UNL1        0.0508
      3 C         141.0571  142.1346  162.5426 C.ar    1  UNL1        0.1347
      4 N         140.6557  142.2047  163.9861 N.ar    1  UNL1       -0.2122
      5 C         141.0299  141.0951  164.9234 C.ar    1  UNL1        0.1596
      6 N         141.8056  139.9153  164.4172 N.ar    1  UNL1       -0.2293
      7 C         140.6284  141.1653  166.3671 C.2     1  UNL1        0.0181
      8 C         140.1057  139.9423  167.0605 C.2     1  UNL1        0.0006
      9 C         139.7042  140.0125  168.5041 C.2     1  UNL1        0.0186
     10 C         139.8255  141.3058  169.2542 C.2     1  UNL1        0.0777
     11 N         139.5100  141.6766  170.6730 N.2     1  UNL1       -0.2442
     12 C         139.8378  143.1288  170.8563 C.2     1  UNL1        0.0985
     13 C         140.3558  143.6556  169.5509 C.2     1  UNL1        0.0182
     14 C         140.3482  142.5289  168.5607 C.2     1  UNL1        0.0015
     15 C         140.7496  142.4586  167.1171 C.3     1  UNL1        0.0573
     16 N         140.6829  143.2443  161.6052 N.pl3   1  UNL1       -0.2880
     17 C         140.3344  144.5987  162.1475 C.3     1  UNL1        0.1242
     18 C         139.9602  145.7083  161.2102 C.3     1  UNL1        0.1636
     19 O         139.9344  145.4636  159.7305 O.3     1  UNL1       -0.3501
     20 C         140.2828  144.1092  159.1882 C.3     1  UNL1        0.1636
     21 C         140.6571  142.9994  160.1256 C.3     1  UNL1        0.1242
     22 C         142.9828  138.6653  162.4674 C.3     1  UNL1        0.1963
     23 C         142.7295  137.8222  159.5995 C.3     1  UNL1        0.1765
     24 S         142.8561  138.2438  161.0334 S.O2    1  UNL1       -0.0025
     25 O         141.5487  137.5777  161.3447 O.2     1  UNL1       -0.1726
     26 O         144.1636  138.9099  160.7221 O.2     1  UNL1       -0.1726
@<TRIPOS>BOND
     1    23    24    1
     2    24    25    2
     3    24    26    2
     4    24    22    1
     5    22     1    1
     6     1     2   ar
     7     2     3   ar
     8     3    16    1
     9    16    17    1
    10    17    18    1
    11    18    19    1
    12    19    20    1
    13    20    21    1
    14     3     4   ar
    15     4     5   ar
    16     5     7    1
    17     7     8    2
    18     8     9    1
    19     9    10    2
    20    10    11    1
    21    11    12    2
    22    12    13    1
    23    13    14    2
    24    14    15    1
    25     5     6   ar
    26     6     1   ar
    27    21    16    1
    28    15     7    1
    29    14    10    1
@<TRIPOS>MOLECULE
*****
 26 29 0 0 0
SMALL
GASTEIGER

@<TRIPOS>ATOM
      1 C         142.7295  140.2652  165.5684 C.ar    1  UNL1        0.0872
      2 C         142.4096  140.4456  167.0227 C.ar    1  UNL1        0.0508
      3 C         141.5559  141.5967  167.4657 C.ar    1  UNL1        0.1347
      4 N         141.0221  142.5674  166.4543 N.ar    1  UNL1       -0.2122
      5 C         141.3421  142.3870  165.0000 C.ar    1  UNL1        0.1596
      6 N         142.1957  141.2359  164.5570 N.ar    1  UNL1       -0.2293
      7 C         140.8082  143.3577  163.9886 C.2     1  UNL1        0.0181
      8 C         139.6800  144.2763  164.3534 C.2     1  UNL1        0.0006
      9 C         139.1462  145.2470  163.3420 C.2     1  UNL1        0.0186
     10 C         139.7408  145.2991  161.9659 C.2     1  UNL1        0.0777
     11 N         139.4255  146.1446  160.7677 N.2     1  UNL1       -0.2442
     12 C         140.3589  145.7485  159.6624 C.2     1  UNL1        0.0985
     13 C         141.2511  144.6582  160.1774 C.2     1  UNL1        0.0182
     14 C         140.8691  144.3805  161.6011 C.2     1  UNL1        0.0015
     15 C         141.4028  143.4098  162.6125 C.3     1  UNL1        0.0573
     16 N         141.2360  141.7771  168.9201 N.pl3   1  UNL1       -0.2880
     17 C         140.2150  142.7912  169.3432 C.3     1  UNL1        0.1242
     18 C         139.8950  142.9716  170.7976 C.3     1  UNL1        0.1636
     19 O         140.5962  142.1379  171.8287 O.3     1  UNL1       -0.3501
     20 C         141.6172  141.1238  171.4056 C.3     1  UNL1        0.1636
     21 C         141.9372  140.9434  169.9512 C.3     1  UNL1        0.1242
     22 C         143.5831  139.1142  165.1255 C.3     1  UNL1        0.1963
     23 C         143.9331  138.5444  162.2009 C.3     1  UNL1        0.1765
     24 S         143.7581  138.8293  163.6631 S.O2    1  UNL1       -0.0025
     25 O         142.4871  138.0327  163.6663 O.2     1  UNL1       -0.1726
     26 O         145.0292  139.6259  163.6600 O.2     1  UNL1       -0.1726
@<TRIPOS>BOND
     1    23    24    1
     2    24    25    2
     3    24    26    2
     4    24    22    1
     5    22     1    1
     6     1     2   ar
     7     2     3   ar
     8     3    16    1
     9    16    17    1
    10    17    18    1
    11    18    19    1
    12    19    20    1
    13    20    21    1
    14     3     4   ar
    15     4     5   ar
    16     5     7    1
    17     7     8    2
    18     8     9    1
    19     9    10    2
    20    10    11    1
    21    11    12    2
    22    12    13    1
    23    13    14    2
    24    14    15    1
    25     5     6   ar
    26     6     1   ar
    27    21    16    1
    28    15     7    1
    29    14    10    1
@<TRIPOS>MOLECULE
*****
 26 29 0 0 0
SMALL
GASTEIGER

@<TRIPOS>ATOM
      1 C         141.2320  143.4214  162.5542 C.ar    1  UNL1        0.0872
      2 C         141.6616  142.2525  161.7181 C.ar    1  UNL1        0.0508
      3 C         141.7324  140.8823  162.3245 C.ar    1  UNL1        0.1347
      4 N         141.3734  140.6810  163.7669 N.ar    1  UNL1       -0.2122
      5 C         140.9438  141.8499  164.6030 C.ar    1  UNL1        0.1596
      6 N         140.8730  143.2200  163.9967 N.ar    1  UNL1       -0.2293
      7 C         140.5849  141.6486  166.0455 C.2     1  UNL1        0.0181
      8 C         140.0706  140.3190  166.5119 C.2     1  UNL1        0.0006
      9 C         139.7116  140.1177  167.9544 C.2     1  UNL1        0.0186
     10 C         139.8671  141.2461  168.9304 C.2     1  UNL1        0.0777
     11 N         139.5964  141.3442  170.4025 N.2     1  UNL1       -0.2442
     12 C         139.9435  142.7345  170.8459 C.2     1  UNL1        0.0985
     13 C         140.4286  143.4956  169.6478 C.2     1  UNL1        0.0182
     14 C         140.3814  142.5757  168.4640 C.2     1  UNL1        0.0015
     15 C         140.7403  142.7770  167.0215 C.3     1  UNL1        0.0573
     16 N         142.1621  139.7133  161.4883 N.pl3   1  UNL1       -0.2880
     17 C         143.2175  138.7761  161.9955 C.3     1  UNL1        0.1242
     18 C         143.6472  137.6072  161.1595 C.3     1  UNL1        0.1636
     19 O         143.0213  137.3756  159.8161 O.3     1  UNL1       -0.3501
     20 C         141.9658  138.3129  159.3088 C.3     1  UNL1        0.1636
     21 C         141.5361  139.4818  160.1450 C.3     1  UNL1        0.1242
     22 C         141.1612  144.7914  161.9479 C.3     1  UNL1        0.1963
     23 C         140.2184  145.1338  159.1205 C.3     1  UNL1        0.1765
     24 S         140.6898  144.9626  160.5341 S.O2    1  UNL1       -0.0025
     25 O         142.1113  145.1080  160.0778 O.2     1  UNL1       -0.1726
     26 O         139.2683  144.8172  160.9905 O.2     1  UNL1       -0.1726
@<TRIPOS>BOND
     1    23    24    1
     2    24    25    2
     3    24    26    2
     4    24    22    1
     5    22     1    1
     6     1     2   ar
     7     2     3   ar
     8     3    16    1
     9    16    17    1
    10    17    18    1
    11    18    19    1
    12    19    20    1
    13    20    21    1
    14     3     4   ar
    15     4     5   ar
    16     5     7    1
    17     7     8    2
    18     8     9    1
    19     9    10    2
    20    10    11    1
    21    11    12    2
    22    12    13    1
    23    13    14    2
    24    14    15    1
    25     5     6   ar
    26     6     1   ar
    27    21    16    1
    28    15     7    1
    29    14    10    1
@<TRIPOS>MOLECULE
*****
 26 29 0 0 0
SMALL
GASTEIGER

@<TRIPOS>ATOM
      1 C         143.3636  140.4612  163.1654 C.ar    1  UNL1        0.0872
      2 C         142.6597  141.4998  162.3434 C.ar    1  UNL1        0.0508
      3 C         141.8396  142.5601  163.0166 C.ar    1  UNL1        0.1347
      4 N         141.7234  142.5818  164.5119 N.ar    1  UNL1       -0.2122
      5 C         142.4273  141.5432  165.3340 C.ar    1  UNL1        0.1596
      6 N         143.2473  140.4829  164.6608 N.ar    1  UNL1       -0.2293
      7 C         142.3110  141.5649  166.8294 C.2     1  UNL1        0.0181
      8 C         143.3004  142.3405  167.6474 C.2     1  UNL1        0.0006
      9 C         143.1842  142.3623  169.1428 C.2     1  UNL1        0.0186
     10 C         142.0784  141.6082  169.8200 C.2     1  UNL1        0.0777
     11 N         141.7132  141.4458  171.2658 N.2     1  UNL1       -0.2442
     12 C         140.4979  140.5698  171.3412 C.2     1  UNL1        0.0985
     13 C         140.1121  140.1907  169.9421 C.2     1  UNL1        0.0182
     14 C         141.0889  140.8325  169.0020 C.2     1  UNL1        0.0015
     15 C         141.2052  140.8109  167.5067 C.3     1  UNL1        0.0573
     16 N         141.1357  143.5988  162.1945 N.pl3   1  UNL1       -0.2880
     17 C         140.8171  143.3262  160.7544 C.3     1  UNL1        0.1242
     18 C         140.1133  144.3648  159.9323 C.3     1  UNL1        0.1636
     19 O         139.7280  145.6761  160.5504 O.3     1  UNL1       -0.3501
     20 C         140.0466  145.9487  161.9906 C.3     1  UNL1        0.1636
     21 C         140.7505  144.9101  162.8127 C.3     1  UNL1        0.1242
     22 C         144.1836  139.4009  162.4922 C.3     1  UNL1        0.1963
     23 C         142.9056  137.5521  160.5051 C.3     1  UNL1        0.1765
     24 S         143.5446  138.4765  161.4986 S.O2    1  UNL1       -0.0025
     25 O         144.4000  139.0547  160.4106 O.2     1  UNL1       -0.1726
     26 O         142.6891  137.8982  162.5868 O.2     1  UNL1       -0.1726
@<TRIPOS>BOND
     1    23    24    1
     2    24    25    2
     3    24    26    2
     4    24    22    1
     5    22     1    1
     6     1     2   ar
     7     2     3   ar
     8     3    16    1
     9    16    17    1
    10    17    18    1
    11    18    19    1
    12    19    20    1
    13    20    21    1
    14     3     4   ar
    15     4     5   ar
    16     5     7    1
    17     7     8    2
    18     8     9    1
    19     9    10    2
    20    10    11    1
    21    11    12    2
    22    12    13    1
    23    13    14    2
    24    14    15    1
    25     5     6   ar
    26     6     1   ar
    27    21    16    1
    28    15     7    1
    29    14    10    1
@<TRIPOS>MOLECULE
*****
 26 29 0 0 0
SMALL
GASTEIGER

@<TRIPOS>ATOM
      1 C         139.9867  143.6315  164.7321 C.ar    1  UNL1        0.0872
      2 C         139.8753  143.3634  166.2038 C.ar    1  UNL1        0.0508
      3 C         140.4870  142.1251  166.7889 C.ar    1  UNL1        0.1347
      4 N         141.2102  141.1549  165.9025 N.ar    1  UNL1       -0.2122
      5 C         141.3216  141.4230  164.4309 C.ar    1  UNL1        0.1596
      6 N         140.7099  142.6612  163.8457 N.ar    1  UNL1       -0.2293
      7 C         142.0448  140.4528  163.5445 C.2     1  UNL1        0.0181
      8 C         143.3763  139.9036  163.9628 C.2     1  UNL1        0.0006
      9 C         144.0995  138.9333  163.0764 C.2     1  UNL1        0.0186
     10 C         143.4910  138.5123  161.7716 C.2     1  UNL1        0.0777
     11 N         143.9654  137.5787  160.6977 N.2     1  UNL1       -0.2442
     12 C         142.9270  137.5509  159.6157 C.2     1  UNL1        0.0985
     13 C         141.8107  138.4674  160.0208 C.2     1  UNL1        0.0182
     14 C         142.1593  139.0616  161.3533 C.2     1  UNL1        0.0015
     15 C         141.4362  140.0318  162.2397 C.3     1  UNL1        0.0573
     16 N         140.3756  141.8570  168.2607 N.pl3   1  UNL1       -0.2880
     17 C         140.2771  143.0008  169.2260 C.3     1  UNL1        0.1242
     18 C         140.1657  142.7327  170.6976 C.3     1  UNL1        0.1636
     19 O         140.1527  141.3208  171.2039 O.3     1  UNL1       -0.3501
     20 C         140.2513  140.1769  170.2385 C.3     1  UNL1        0.1636
     21 C         140.3627  140.4450  168.7668 C.3     1  UNL1        0.1242
     22 C         139.3750  144.8697  164.1470 C.3     1  UNL1        0.1963
     23 C         140.0248  145.6774  161.3318 C.3     1  UNL1        0.1765
     24 S         139.6999  145.2736  162.7393 S.O2    1  UNL1       -0.0025
     25 O         138.3241  144.8638  162.3042 O.2     1  UNL1       -0.1726
     26 O         141.0757  145.6834  163.1745 O.2     1  UNL1       -0.1726
@<TRIPOS>BOND
     1    23    24    1
     2    24    25    2
     3    24    26    2
     4    24    22    1
     5    22     1    1
     6     1     2   ar
     7     2     3   ar
     8     3    16    1
     9    16    17    1
    10    17    18    1
    11    18    19    1
    12    19    20    1
    13    20    21    1
    14     3     4   ar
    15     4     5   ar
    16     5     7    1
    17     7     8    2
    18     8     9    1
    19     9    10    2
    20    10    11    1
    21    11    12    2
    22    12    13    1
    23    13    14    2
    24    14    15    1
    25     5     6   ar
    26     6     1   ar
    27    21    16    1
    28    15     7    1
    29    14    10    1
@<TRIPOS>MOLECULE
*****
 26 29 0 0 0
SMALL
GASTEIGER

@<TRIPOS>ATOM
      1 C         143.3288  142.0933  165.6061 C.ar    1  UNL1        0.0872
      2 C         142.9760  142.2593  167.0545 C.ar    1  UNL1        0.0508
      3 C         141.6827  141.7097  167.5792 C.ar    1  UNL1        0.1347
      4 N         140.7422  140.9941  166.6555 N.ar    1  UNL1       -0.2122
      5 C         141.0950  140.8281  165.2071 C.ar    1  UNL1        0.1596
      6 N         142.3882  141.3776  164.6824 N.ar    1  UNL1       -0.2293
      7 C         140.1544  140.1124  164.2833 C.2     1  UNL1        0.0181
      8 C         139.8212  138.6696  164.5224 C.2     1  UNL1        0.0006
      9 C         138.8806  137.9540  163.5987 C.2     1  UNL1        0.0186
     10 C         138.2732  138.6813  162.4359 C.2     1  UNL1        0.0777
     11 N         137.3203  138.2418  161.3641 N.2     1  UNL1       -0.2442
     12 C         137.0646  139.4131  160.4626 C.2     1  UNL1        0.0985
     13 C         137.8594  140.5764  160.9772 C.2     1  UNL1        0.0182
     14 C         138.6064  140.1241  162.1968 C.2     1  UNL1        0.0015
     15 C         139.5470  140.8397  163.1205 C.3     1  UNL1        0.0573
     16 N         141.3299  141.8757  169.0278 N.pl3   1  UNL1       -0.2880
     17 C         142.0396  141.0638  170.0703 C.3     1  UNL1        0.1242
     18 C         141.6869  141.2298  171.5187 C.3     1  UNL1        0.1636
     19 O         140.6244  142.2077  171.9246 O.3     1  UNL1       -0.3501
     20 C         139.9146  143.0197  170.8820 C.3     1  UNL1        0.1636
     21 C         140.2674  142.8537  169.4335 C.3     1  UNL1        0.1242
     22 C         144.6220  142.6429  165.0814 C.3     1  UNL1        0.1963
     23 C         145.3969  142.1818  162.2201 C.3     1  UNL1        0.1765
     24 S         145.0095  142.4123  163.6507 S.O2    1  UNL1       -0.0025
     25 O         144.3424  143.6987  163.2629 O.2     1  UNL1       -0.1726
     26 O         145.6765  141.1260  164.0386 O.2     1  UNL1       -0.1726
@<TRIPOS>BOND
     1    23    24    1
     2    24    25    2
     3    24    26    2
     4    24    22    1
     5    22     1    1
     6     1     2   ar
     7     2     3   ar
     8     3    16    1
     9    16    17    1
    10    17    18    1
    11    18    19    1
    12    19    20    1
    13    20    21    1
    14     3     4   ar
    15     4     5   ar
    16     5     7    1
    17     7     8    2
    18     8     9    1
    19     9    10    2
    20    10    11    1
    21    11    12    2
    22    12    13    1
    23    13    14    2
    24    14    15    1
    25     5     6   ar
    26     6     1   ar
    27    21    16    1
    28    15     7    1
    29    14    10    1
@<TRIPOS>MOLECULE
*****
 26 29 0 0 0
SMALL
GASTEIGER

@<TRIPOS>ATOM
      1 C         141.0574  142.8647  161.5881 C.ar    1  UNL1        0.0872
      2 C         141.2237  141.8579  160.4887 C.ar    1  UNL1        0.0508
      3 C         140.9229  140.4109  160.7450 C.ar    1  UNL1        0.1347
      4 N         140.4557  139.9707  162.1007 N.ar    1  UNL1       -0.2122
      5 C         140.2893  140.9775  163.2001 C.ar    1  UNL1        0.1596
      6 N         140.5901  142.4244  162.9438 N.ar    1  UNL1       -0.2293
      7 C         139.8221  140.5372  164.5558 C.2     1  UNL1        0.0181
      8 C         138.8530  139.3993  164.6821 C.2     1  UNL1        0.0006
      9 C         138.3858  138.9590  166.0379 C.2     1  UNL1        0.0186
     10 C         138.8878  139.6567  167.2672 C.2     1  UNL1        0.0777
     11 N         138.6073  139.4464  168.7256 N.2     1  UNL1       -0.2442
     12 C         139.4032  140.4543  169.5007 C.2     1  UNL1        0.0985
     13 C         140.1754  141.2876  168.5212 C.2     1  UNL1        0.0182
     14 C         139.8569  140.7946  167.1408 C.2     1  UNL1        0.0015
     15 C         140.3240  141.2349  165.7851 C.3     1  UNL1        0.0573
     16 N         141.0892  139.4041  159.6455 N.pl3   1  UNL1       -0.2880
     17 C         139.9209  139.0414  158.7776 C.3     1  UNL1        0.1242
     18 C         140.0873  138.0346  157.6782 C.3     1  UNL1        0.1636
     19 O         141.4220  137.3906  157.4467 O.3     1  UNL1       -0.3501
     20 C         142.5904  137.7532  158.3146 C.3     1  UNL1        0.1636
     21 C         142.4240  138.7601  159.4141 C.3     1  UNL1        0.1242
     22 C         141.3582  144.3116  161.3318 C.3     1  UNL1        0.1963
     23 C         140.3941  145.6206  158.8105 C.3     1  UNL1        0.1765
     24 S         140.8761  144.9661  160.0711 S.O2    1  UNL1       -0.0025
     25 O         142.2756  144.9570  159.5313 O.2     1  UNL1       -0.1726
     26 O         139.4766  144.9752  160.6110 O.2     1  UNL1       -0.1726
@<TRIPOS>BOND
     1    23    24    1
     2    24    25    2
     3    24    26    2
     4    24    22    1
     5    22     1    1
     6     1     2   ar
     7     2     3   ar
     8     3    16    1
     9    16    17    1
    10    17    18    1
    11    18    19    1
    12    19    20    1
    13    20    21    1
    14     3     4   ar
    15     4     5   ar
    16     5     7    1
    17     7     8    2
    18     8     9    1
    19     9    10    2
    20    10    11    1
    21    11    12    2
    22    12    13    1
    23    13    14    2
    24    14    15    1
    25     5     6   ar
    26     6     1   ar
    27    21    16    1
    28    15     7    1
    29    14    10    1
@<TRIPOS>MOLECULE
*****
 26 29 0 0 0
SMALL
GASTEIGER

@<TRIPOS>ATOM
      1 C         142.0848  139.6818  161.9216 C.ar    1  UNL1        0.0872
      2 C         141.6069  140.9990  161.3863 C.ar    1  UNL1        0.0508
      3 C         141.1345  142.0651  162.3298 C.ar    1  UNL1        0.1347
      4 N         141.1401  141.8141  163.8087 N.ar    1  UNL1       -0.2122
      5 C         141.6180  140.4969  164.3440 C.ar    1  UNL1        0.1596
      6 N         142.0904  139.4308  163.4006 N.ar    1  UNL1       -0.2293
      7 C         141.6236  140.2459  165.8229 C.2     1  UNL1        0.0181
      8 C         142.8240  139.6255  166.4738 C.2     1  UNL1        0.0006
      9 C         142.8296  139.3745  167.9527 C.2     1  UNL1        0.0186
     10 C         141.6346  139.7441  168.7806 C.2     1  UNL1        0.0777
     11 N         141.3525  139.6174  170.2483 N.2     1  UNL1       -0.2442
     12 C         139.9776  140.1597  170.5045 C.2     1  UNL1        0.0985
     13 C         139.4100  140.6214  169.1950 C.2     1  UNL1        0.0182
     14 C         140.4341  140.3646  168.1296 C.2     1  UNL1        0.0015
     15 C         140.4286  140.6155  166.6507 C.3     1  UNL1        0.0573
     16 N         140.6566  143.3824  161.7945 N.pl3   1  UNL1       -0.2880
     17 C         140.7347  143.6671  160.3239 C.3     1  UNL1        0.1242
     18 C         140.2567  144.9843  159.7885 C.3     1  UNL1        0.1636
     19 O         139.7007  146.0167  160.7238 O.3     1  UNL1       -0.3501
     20 C         139.6226  145.7320  162.1945 C.3     1  UNL1        0.1636
     21 C         140.1005  144.4148  162.7299 C.3     1  UNL1        0.1242
     22 C         142.5571  138.6157  160.9782 C.3     1  UNL1        0.1963
     23 C         142.6138  139.1432  158.0255 C.3     1  UNL1        0.1765
     24 S         142.5855  138.8794  159.5018 S.O2    1  UNL1       -0.0025
     25 O         144.0349  139.2539  159.5966 O.2     1  UNL1       -0.1726
     26 O         141.1360  138.5050  159.4071 O.2     1  UNL1       -0.1726
@<TRIPOS>BOND
     1    23    24    1
     2    24    25    2
     3    24    26    2
     4    24    22    1
     5    22     1    1
     6     1     2   ar
     7     2     3   ar
     8     3    16    1
     9    16    17    1
    10    17    18    1
    11    18    19    1
    12    19    20    1
    13    20    21    1
    14     3     4   ar
    15     4     5   ar
    16     5     7    1
    17     7     8    2
    18     8     9    1
    19     9    10    2
    20    10    11    1
    21    11    12    2
    22    12    13    1
    23    13    14    2
    24    14    15    1
    25     5     6   ar
    26     6     1   ar
    27    21    16    1
    28    15     7    1
    29    14    10    1
