@<TRIPOS>MOLECULE
*****
 31 33 0 0 0
SMALL
GASTEIGER

@<TRIPOS>ATOM
      1 C         138.0461  141.3463  162.3554 C.ar    1  UNL1        0.0040
      2 C         138.1724  141.2323  160.8651 C.ar    1  UNL1        0.0016
      3 C         138.4507  139.8994  160.2358 C.ar    1  UNL1        0.0712
      4 C         138.6027  138.6806  161.0968 C.ar    1  UNL1        0.0038
      5 C         138.4763  138.7946  162.5871 C.ar    1  UNL1       -0.0003
      6 C         138.1980  140.1274  163.2164 C.ar    1  UNL1       -0.0019
      7 C         138.5771  139.7854  158.7454 C.3     1  UNL1        0.4186
      8 F         138.7035  139.6713  157.2552 F       1  UNL1       -0.1659
      9 F         139.3749  138.5259  158.9095 F       1  UNL1       -0.1659
     10 F         137.7792  141.0449  158.5814 F       1  UNL1       -0.1659
     11 C         138.0716  140.2415  164.7067 C.2     1  UNL1        0.0044
     12 C         138.7219  139.2223  165.5947 C.2     1  UNL1        0.0579
     13 C         138.5955  139.3363  167.0850 C.2     1  UNL1        0.2492
     14 O         137.5534  138.5395  167.8125 O.2     1  UNL1       -0.2699
     15 N         139.5113  140.2470  167.8478 N.am    1  UNL1       -0.2761
     16 C         140.5533  141.0438  167.1204 C.3     1  UNL1        0.0940
     17 C         141.4691  141.9545  167.8833 C.3     1  UNL1        0.0300
     18 C         141.3427  142.0685  169.3736 C.3     1  UNL1        0.0985
     19 C         140.3006  141.2717  170.1011 C.3     1  UNL1        0.0300
     20 C         139.3849  140.3610  169.3382 C.3     1  UNL1        0.0940
     21 C         142.2585  142.9793  170.1364 C.3     1  UNL1        0.3976
     22 F         143.1742  143.8901  170.8993 F       1  UNL1       -0.1701
     23 F         143.2662  141.8737  170.2467 F       1  UNL1       -0.1701
     24 F         141.2508  144.0849  170.0262 F       1  UNL1       -0.1701
     25 C         137.7677  142.6791  162.9847 C.3     1  UNL1        0.1776
     26 C         142.2495  145.3692  163.7319 C.3     1  UNL1        0.0776
     27 C         140.8667  144.9967  163.2856 C.ar    1  UNL1        0.1838
     28 N         139.9442  145.8511  162.4676 N.ar    1  UNL1       -0.1123
     29 N         138.6710  145.0869  162.2554 N.ar    1  UNL1       -0.0451
     30 N         138.8067  143.7602  162.9421 N.ar    1  UNL1       -0.1467
     31 N         140.1637  143.7046  163.5788 N.ar    1  UNL1       -0.1339
@<TRIPOS>BOND
     1    26    27    1
     2    27    28   ar
     3    28    29   ar
     4    29    30   ar
     5    30    25    1
     6    25     1    1
     7     1     2   ar
     8     2     3   ar
     9     3     7    1
    10     7     8    1
    11     7     9    1
    12     7    10    1
    13     3     4   ar
    14     4     5   ar
    15     5     6   ar
    16     6    11    1
    17    11    12    2
    18    12    13    1
    19    13    14    2
    20    13    15   am
    21    15    16    1
    22    16    17    1
    23    17    18    1
    24    18    21    1
    25    21    22    1
    26    21    23    1
    27    21    24    1
    28    18    19    1
    29    19    20    1
    30    30    31   ar
    31    31    27   ar
    32     6     1   ar
    33    20    15    1
@<TRIPOS>MOLECULE
*****
 31 33 0 0 0
SMALL
GASTEIGER

@<TRIPOS>ATOM
      1 C         140.7665  138.3211  162.2312 C.ar    1  UNL1        0.0040
      2 C         140.6888  138.4342  160.7375 C.ar    1  UNL1        0.0016
      3 C         141.9370  138.3339  159.9118 C.ar    1  UNL1        0.0712
      4 C         143.2630  138.1205  160.5798 C.ar    1  UNL1        0.0038
      5 C         143.3407  138.0073  162.0734 C.ar    1  UNL1       -0.0003
      6 C         142.0925  138.1077  162.8991 C.ar    1  UNL1       -0.0019
      7 C         141.8592  138.4470  158.4180 C.3     1  UNL1        0.4186
      8 F         141.7815  138.5601  156.9244 F       1  UNL1       -0.1659
      9 F         142.6598  137.1860  158.2809 F       1  UNL1       -0.1659
     10 F         141.0587  139.7081  158.5551 F       1  UNL1       -0.1659
     11 C         142.1703  137.9945  164.3929 C.2     1  UNL1        0.0044
     12 C         143.1427  138.8411  165.1595 C.2     1  UNL1        0.0579
     13 C         143.2204  138.7280  166.6532 C.2     1  UNL1        0.2492
     14 O         144.1005  137.6886  167.2819 O.2     1  UNL1       -0.2699
     15 N         142.4182  139.6544  167.5183 N.am    1  UNL1       -0.2761
     16 C         141.5382  140.6938  166.8897 C.3     1  UNL1        0.0940
     17 C         140.7359  141.6201  167.7547 C.3     1  UNL1        0.0300
     18 C         140.8137  141.5070  169.2484 C.3     1  UNL1        0.0985
     19 C         141.6937  140.4676  169.8771 C.3     1  UNL1        0.0300
     20 C         142.4960  139.5412  169.0120 C.3     1  UNL1        0.0940
     21 C         140.0115  142.4333  170.1135 C.3     1  UNL1        0.3976
     22 F         139.2092  143.3596  170.9786 F       1  UNL1       -0.1701
     23 F         138.9146  141.4130  170.1889 F       1  UNL1       -0.1701
     24 F         141.1084  143.4537  170.0381 F       1  UNL1       -0.1701
     25 C         139.5183  138.4214  163.0570 C.3     1  UNL1        0.1776
     26 C         137.7886  143.1840  164.5425 C.3     1  UNL1        0.0776
     27 C         137.9568  141.8991  163.7870 C.ar    1  UNL1        0.1838
     28 N         137.1880  141.4866  162.5668 N.ar    1  UNL1       -0.1123
     29 N         137.6794  140.1337  162.1449 N.ar    1  UNL1       -0.0451
     30 N         138.7518  139.7100  163.1042 N.ar    1  UNL1       -0.1467
     31 N         138.9232  140.8011  164.1191 N.ar    1  UNL1       -0.1339
@<TRIPOS>BOND
     1    26    27    1
     2    27    28   ar
     3    28    29   ar
     4    29    30   ar
     5    30    25    1
     6    25     1    1
     7     1     2   ar
     8     2     3   ar
     9     3     7    1
    10     7     8    1
    11     7     9    1
    12     7    10    1
    13     3     4   ar
    14     4     5   ar
    15     5     6   ar
    16     6    11    1
    17    11    12    2
    18    12    13    1
    19    13    14    2
    20    13    15   am
    21    15    16    1
    22    16    17    1
    23    17    18    1
    24    18    21    1
    25    21    22    1
    26    21    23    1
    27    21    24    1
    28    18    19    1
    29    19    20    1
    30    30    31   ar
    31    31    27   ar
    32     6     1   ar
    33    20    15    1
@<TRIPOS>MOLECULE
*****
 31 33 0 0 0
SMALL
GASTEIGER

@<TRIPOS>ATOM
      1 C         140.3763  138.1930  162.2489 C.ar    1  UNL1        0.0040
      2 C         140.3410  138.3131  160.7542 C.ar    1  UNL1        0.0016
      3 C         139.1765  138.9785  160.0826 C.ar    1  UNL1        0.0712
      4 C         138.0473  139.5238  160.9057 C.ar    1  UNL1        0.0038
      5 C         138.0825  139.4037  162.4004 C.ar    1  UNL1       -0.0003
      6 C         139.2470  138.7382  163.0720 C.ar    1  UNL1       -0.0019
      7 C         139.1412  139.0986  158.5877 C.3     1  UNL1        0.4186
      8 F         139.1059  139.2188  157.0930 F       1  UNL1       -0.1659
      9 F         140.2397  138.0830  158.4802 F       1  UNL1       -0.1659
     10 F         138.0427  140.1143  158.6953 F       1  UNL1       -0.1659
     11 C         139.2823  138.6181  164.5668 C.2     1  UNL1        0.0044
     12 C         138.5292  139.5987  165.4161 C.2     1  UNL1        0.0579
     13 C         138.5645  139.4786  166.9108 C.2     1  UNL1        0.2492
     14 O         137.6695  138.4956  167.6056 O.2     1  UNL1       -0.2699
     15 N         139.4948  140.3415  167.7108 N.am    1  UNL1       -0.2761
     16 C         140.3898  141.3244  167.0161 C.3     1  UNL1        0.0940
     17 C         141.3202  142.1873  167.8161 C.3     1  UNL1        0.0300
     18 C         141.3554  142.0672  169.3108 C.3     1  UNL1        0.0985
     19 C         140.4604  141.0842  170.0056 C.3     1  UNL1        0.0300
     20 C         139.5301  140.2213  169.2056 C.3     1  UNL1        0.0940
     21 C         142.2857  142.9300  170.1109 C.3     1  UNL1        0.3976
     22 F         143.2161  143.7928  170.9109 F       1  UNL1       -0.1701
     23 F         141.2933  144.0533  170.0535 F       1  UNL1       -0.1701
     24 F         143.2782  141.8067  170.1682 F       1  UNL1       -0.1701
     25 C         141.5408  137.5275  162.9206 C.3     1  UNL1        0.1776
     26 C         145.4660  140.9588  163.7570 C.3     1  UNL1        0.0776
     27 C         144.3937  139.9348  163.9842 C.ar    1  UNL1        0.1838
     28 N         144.0128  139.3353  165.3053 N.ar    1  UNL1       -0.1123
     29 N         142.8977  138.3605  165.0677 N.ar    1  UNL1       -0.0451
     30 N         142.5895  138.3576  163.5997 N.ar    1  UNL1       -0.1467
     31 N         143.5141  139.3306  162.9301 N.ar    1  UNL1       -0.1339
@<TRIPOS>BOND
     1    26    27    1
     2    27    28   ar
     3    28    29   ar
     4    29    30   ar
     5    30    25    1
     6    25     1    1
     7     1     2   ar
     8     2     3   ar
     9     3     7    1
    10     7     8    1
    11     7     9    1
    12     7    10    1
    13     3     4   ar
    14     4     5   ar
    15     5     6   ar
    16     6    11    1
    17    11    12    2
    18    12    13    1
    19    13    14    2
    20    13    15   am
    21    15    16    1
    22    16    17    1
    23    17    18    1
    24    18    21    1
    25    21    22    1
    26    21    23    1
    27    21    24    1
    28    18    19    1
    29    19    20    1
    30    30    31   ar
    31    31    27   ar
    32     6     1   ar
    33    20    15    1
@<TRIPOS>MOLECULE
*****
 31 33 0 0 0
SMALL
GASTEIGER

@<TRIPOS>ATOM
      1 C         144.1646  140.9783  162.1970 C.ar    1  UNL1        0.0040
      2 C         144.0484  141.0999  160.7065 C.ar    1  UNL1        0.0016
      3 C         143.8437  139.8734  159.8677 C.ar    1  UNL1        0.0712
      4 C         143.7552  138.5253  160.5194 C.ar    1  UNL1        0.0038
      5 C         143.8714  138.4037  162.0099 C.ar    1  UNL1       -0.0003
      6 C         144.0761  139.6302  162.8487 C.ar    1  UNL1       -0.0019
      7 C         143.7274  139.9949  158.3771 C.3     1  UNL1        0.4186
      8 F         143.6112  140.1164  156.8866 F       1  UNL1       -0.1659
      9 F         142.9482  138.7140  158.3335 F       1  UNL1       -0.1659
     10 F         144.5067  141.2759  158.4208 F       1  UNL1       -0.1659
     11 C         144.1924  139.5087  164.3393 C.2     1  UNL1        0.0044
     12 C         143.0567  138.9384  165.1361 C.2     1  UNL1        0.0579
     13 C         143.1729  138.8168  166.6266 C.2     1  UNL1        0.2492
     14 O         144.0760  137.7802  167.2265 O.2     1  UNL1       -0.2699
     15 N         142.3859  139.7318  167.5174 N.am    1  UNL1       -0.2761
     16 C         141.4828  140.7684  166.9176 C.3     1  UNL1        0.0940
     17 C         140.6958  141.6834  167.8084 C.3     1  UNL1        0.0300
     18 C         140.8120  141.5619  169.2989 C.3     1  UNL1        0.0985
     19 C         141.7152  140.5253  169.8987 C.3     1  UNL1        0.0300
     20 C         142.5021  139.6102  169.0080 C.3     1  UNL1        0.0940
     21 C         140.0250  142.4769  170.1896 C.3     1  UNL1        0.3976
     22 F         139.2381  143.3920  171.0803 F       1  UNL1       -0.1701
     23 F         138.8958  141.4898  170.2060 F       1  UNL1       -0.1701
     24 F         141.1543  143.4641  170.1732 F       1  UNL1       -0.1701
     25 C         144.3694  142.2049  163.0359 C.3     1  UNL1        0.1776
     26 C         139.9118  144.5646  164.5988 C.3     1  UNL1        0.0776
     27 C         141.2123  144.2894  163.9039 C.ar    1  UNL1        0.1838
     28 N         141.8997  145.1973  162.9276 N.ar    1  UNL1       -0.1123
     29 N         143.1660  144.5270  162.4836 N.ar    1  UNL1       -0.0451
     30 N         143.2613  143.2048  163.1855 N.ar    1  UNL1       -0.1467
     31 N         142.0538  143.0580  164.0633 N.ar    1  UNL1       -0.1339
@<TRIPOS>BOND
     1    26    27    1
     2    27    28   ar
     3    28    29   ar
     4    29    30   ar
     5    30    25    1
     6    25     1    1
     7     1     2   ar
     8     2     3   ar
     9     3     7    1
    10     7     8    1
    11     7     9    1
    12     7    10    1
    13     3     4   ar
    14     4     5   ar
    15     5     6   ar
    16     6    11    1
    17    11    12    2
    18    12    13    1
    19    13    14    2
    20    13    15   am
    21    15    16    1
    22    16    17    1
    23    17    18    1
    24    18    21    1
    25    21    22    1
    26    21    23    1
    27    21    24    1
    28    18    19    1
    29    19    20    1
    30    30    31   ar
    31    31    27   ar
    32     6     1   ar
    33    20    15    1
@<TRIPOS>MOLECULE
*****
 31 33 0 0 0
SMALL
GASTEIGER

@<TRIPOS>ATOM
      1 C         138.0082  140.3253  163.6026 C.ar    1  UNL1        0.0040
      2 C         138.1108  140.4669  165.0923 C.ar    1  UNL1        0.0016
      3 C         138.6070  139.3202  165.9222 C.ar    1  UNL1        0.0712
      4 C         139.0008  138.0319  165.2623 C.ar    1  UNL1        0.0038
      5 C         138.8982  137.8904  163.7726 C.ar    1  UNL1       -0.0003
      6 C         138.4020  139.0371  162.9427 C.ar    1  UNL1       -0.0019
      7 C         138.7096  139.4617  167.4120 C.3     1  UNL1        0.4186
      8 F         138.8122  139.6032  168.9018 F       1  UNL1       -0.1659
      9 F         140.0148  140.1836  167.2536 F       1  UNL1       -0.1659
     10 F         137.4043  138.7398  167.5705 F       1  UNL1       -0.1659
     11 C         138.2994  138.8956  161.4529 C.2     1  UNL1        0.0044
     12 C         139.2994  139.5744  160.5644 C.2     1  UNL1        0.0579
     13 C         139.1969  139.4329  159.0747 C.2     1  UNL1        0.2492
     14 O         137.9776  139.9301  158.3562 O.2     1  UNL1       -0.2699
     15 N         140.3136  138.7942  158.3033 N.am    1  UNL1       -0.2761
     16 C         141.5329  138.2970  159.0217 C.3     1  UNL1        0.0940
     17 C         142.6496  137.6583  158.2504 C.3     1  UNL1        0.0300
     18 C         142.5471  137.5168  156.7606 C.3     1  UNL1        0.0985
     19 C         141.3278  138.0141  156.0421 C.3     1  UNL1        0.0300
     20 C         140.2111  138.6528  156.8135 C.3     1  UNL1        0.0940
     21 C         143.6638  136.8781  155.9893 C.3     1  UNL1        0.3976
     22 F         144.7806  136.2394  155.2179 F       1  UNL1       -0.1701
     23 F         143.8814  138.1606  155.2423 F       1  UNL1       -0.1701
     24 F         143.4463  135.5957  156.7362 F       1  UNL1       -0.1701
     25 C         137.5120  141.4721  162.7726 C.3     1  UNL1        0.1776
     26 C         141.3507  145.0451  163.3878 C.3     1  UNL1        0.0776
     27 C         140.0511  144.3981  163.0103 C.ar    1  UNL1        0.1838
     28 N         138.9064  145.0642  162.3061 N.ar    1  UNL1       -0.1123
     29 N         137.8159  144.0492  162.1313 N.ar    1  UNL1       -0.0451
     30 N         138.2866  142.7558  162.7275 N.ar    1  UNL1       -0.1467
     31 N         139.6681  142.9714  163.2708 N.ar    1  UNL1       -0.1339
@<TRIPOS>BOND
     1    26    27    1
     2    27    28   ar
     3    28    29   ar
     4    29    30   ar
     5    30    25    1
     6    25     1    1
     7     1     2   ar
     8     2     3   ar
     9     3     7    1
    10     7     8    1
    11     7     9    1
    12     7    10    1
    13     3     4   ar
    14     4     5   ar
    15     5     6   ar
    16     6    11    1
    17    11    12    2
    18    12    13    1
    19    13    14    2
    20    13    15   am
    21    15    16    1
    22    16    17    1
    23    17    18    1
    24    18    21    1
    25    21    22    1
    26    21    23    1
    27    21    24    1
    28    18    19    1
    29    19    20    1
    30    30    31   ar
    31    31    27   ar
    32     6     1   ar
    33    20    15    1
@<TRIPOS>MOLECULE
*****
 31 33 0 0 0
SMALL
GASTEIGER

@<TRIPOS>ATOM
      1 C         137.9876  140.2789  163.1731 C.ar    1  UNL1        0.0040
      2 C         138.0522  140.4149  164.6655 C.ar    1  UNL1        0.0016
      3 C         138.4938  139.2537  165.5059 C.ar    1  UNL1        0.0712
      4 C         138.8709  137.9565  164.8540 C.ar    1  UNL1        0.0038
      5 C         138.8063  137.8204  163.3616 C.ar    1  UNL1       -0.0003
      6 C         138.3647  138.9817  162.5211 C.ar    1  UNL1       -0.0019
      7 C         138.5584  139.3897  166.9984 C.3     1  UNL1        0.4186
      8 F         138.6230  139.5256  168.4908 F       1  UNL1       -0.1659
      9 F         137.3602  138.4972  167.1315 F       1  UNL1       -0.1659
     10 F         139.7567  140.2821  166.8653 F       1  UNL1       -0.1659
     11 C         138.3000  138.8457  161.0287 C.2     1  UNL1        0.0044
     12 C         139.4426  139.3228  160.1820 C.2     1  UNL1        0.0579
     13 C         139.3781  139.1868  158.6896 C.2     1  UNL1        0.2492
     14 O         139.8018  137.9059  158.0341 O.2     1  UNL1       -0.2699
     15 N         138.8898  140.3318  157.8526 N.am    1  UNL1       -0.2761
     16 C         138.4660  141.6128  158.5080 C.3     1  UNL1        0.0940
     17 C         137.9777  142.7578  157.6710 C.3     1  UNL1        0.0300
     18 C         137.9132  142.6218  156.1786 C.3     1  UNL1        0.0985
     19 C         138.3369  141.3408  155.5231 C.3     1  UNL1        0.0300
     20 C         138.8252  140.1958  156.3601 C.3     1  UNL1        0.0940
     21 C         137.4248  143.7668  155.3416 C.3     1  UNL1        0.3976
     22 F         136.9365  144.9118  154.5046 F       1  UNL1       -0.1701
     23 F         136.0283  143.2243  155.4142 F       1  UNL1       -0.1701
     24 F         138.8214  144.3093  155.2690 F       1  UNL1       -0.1701
     25 C         137.5459  141.4402  162.3325 C.3     1  UNL1        0.1776
     26 C         141.4577  144.9792  162.5666 C.3     1  UNL1        0.0776
     27 C         140.0898  144.3667  162.5056 C.ar    1  UNL1        0.1838
     28 N         138.7891  145.1137  162.4919 N.ar    1  UNL1       -0.1123
     29 N         137.6779  144.1083  162.4254 N.ar    1  UNL1       -0.0451
     30 N         138.2917  142.7400  162.3980 N.ar    1  UNL1       -0.1467
     31 N         139.7824  142.8997  162.4475 N.ar    1  UNL1       -0.1339
@<TRIPOS>BOND
     1    26    27    1
     2    27    28   ar
     3    28    29   ar
     4    29    30   ar
     5    30    25    1
     6    25     1    1
     7     1     2   ar
     8     2     3   ar
     9     3     7    1
    10     7     8    1
    11     7     9    1
    12     7    10    1
    13     3     4   ar
    14     4     5   ar
    15     5     6   ar
    16     6    11    1
    17    11    12    2
    18    12    13    1
    19    13    14    2
    20    13    15   am
    21    15    16    1
    22    16    17    1
    23    17    18    1
    24    18    21    1
    25    21    22    1
    26    21    23    1
    27    21    24    1
    28    18    19    1
    29    19    20    1
    30    30    31   ar
    31    31    27   ar
    32     6     1   ar
    33    20    15    1
@<TRIPOS>MOLECULE
*****
 31 33 0 0 0
SMALL
GASTEIGER

@<TRIPOS>ATOM
      1 C         139.4087  140.6249  165.8870 C.ar    1  UNL1        0.0040
      2 C         139.3901  140.0192  167.2591 C.ar    1  UNL1        0.0016
      3 C         139.8877  140.8081  168.4339 C.ar    1  UNL1        0.0712
      4 C         140.4038  142.2025  168.2365 C.ar    1  UNL1        0.0038
      5 C         140.4225  142.8082  166.8644 C.ar    1  UNL1       -0.0003
      6 C         139.9249  142.0194  165.6896 C.ar    1  UNL1       -0.0019
      7 C         139.8691  140.2024  169.8061 C.3     1  UNL1        0.4186
      8 F         139.8505  139.5967  171.1782 F       1  UNL1       -0.1659
      9 F         141.1168  139.4346  169.4841 F       1  UNL1       -0.1659
     10 F         138.6214  140.9702  170.1281 F       1  UNL1       -0.1659
     11 C         139.9435  142.6251  164.3174 C.2     1  UNL1        0.0044
     12 C         141.2000  143.2538  163.7921 C.2     1  UNL1        0.0579
     13 C         141.2186  143.8595  162.4200 C.2     1  UNL1        0.2492
     14 O         140.3817  145.0682  162.1222 O.2     1  UNL1       -0.2699
     15 N         142.0742  143.2565  161.3456 N.am    1  UNL1       -0.2761
     16 C         142.9111  142.0478  161.6433 C.3     1  UNL1        0.0940
     17 C         143.7667  141.4448  160.5689 C.3     1  UNL1        0.0300
     18 C         143.7854  142.0505  159.1967 C.3     1  UNL1        0.0985
     19 C         142.9484  143.2592  158.8990 C.3     1  UNL1        0.0300
     20 C         142.0928  143.8622  159.9734 C.3     1  UNL1        0.0940
     21 C         144.6409  141.4475  158.1223 C.3     1  UNL1        0.3976
     22 F         145.4965  140.8445  157.0479 F       1  UNL1       -0.1701
     23 F         143.8072  140.2010  158.1579 F       1  UNL1       -0.1701
     24 F         145.4747  142.6939  158.0867 F       1  UNL1       -0.1701
     25 C         138.9112  139.8361  164.7121 C.3     1  UNL1        0.1776
     26 C         143.2890  138.1741  162.2721 C.3     1  UNL1        0.0776
     27 C         141.8801  138.2471  162.7818 C.ar    1  UNL1        0.1838
     28 N         140.8000  137.2357  162.5358 N.ar    1  UNL1       -0.1123
     29 N         139.5563  137.7079  163.2290 N.ar    1  UNL1       -0.0451
     30 N         139.8678  139.0110  163.9034 N.ar    1  UNL1       -0.1467
     31 N         141.3040  139.3442  163.6270 N.ar    1  UNL1       -0.1339
@<TRIPOS>BOND
     1    26    27    1
     2    27    28   ar
     3    28    29   ar
     4    29    30   ar
     5    30    25    1
     6    25     1    1
     7     1     2   ar
     8     2     3   ar
     9     3     7    1
    10     7     8    1
    11     7     9    1
    12     7    10    1
    13     3     4   ar
    14     4     5   ar
    15     5     6   ar
    16     6    11    1
    17    11    12    2
    18    12    13    1
    19    13    14    2
    20    13    15   am
    21    15    16    1
    22    16    17    1
    23    17    18    1
    24    18    21    1
    25    21    22    1
    26    21    23    1
    27    21    24    1
    28    18    19    1
    29    19    20    1
    30    30    31   ar
    31    31    27   ar
    32     6     1   ar
    33    20    15    1
@<TRIPOS>MOLECULE
*****
 31 33 0 0 0
SMALL
GASTEIGER

@<TRIPOS>ATOM
      1 C         142.9171  141.6300  166.5295 C.ar    1  UNL1        0.0040
      2 C         143.2090  142.5692  167.6620 C.ar    1  UNL1        0.0016
      3 C         143.1762  142.0713  169.0766 C.ar    1  UNL1        0.0712
      4 C         142.8515  140.6343  169.3586 C.ar    1  UNL1        0.0038
      5 C         142.5596  139.6951  168.2261 C.ar    1  UNL1       -0.0003
      6 C         142.5924  140.1930  166.8115 C.ar    1  UNL1       -0.0019
      7 C         143.4682  143.0105  170.2092 C.3     1  UNL1        0.4186
      8 F         143.7601  143.9496  171.3418 F       1  UNL1       -0.1659
      9 F         142.0191  143.3939  170.2648 F       1  UNL1       -0.1659
     10 F         144.9173  142.6271  170.1537 F       1  UNL1       -0.1659
     11 C         142.3005  139.2538  165.6789 C.2     1  UNL1        0.0044
     12 C         140.9567  139.2771  165.0126 C.2     1  UNL1        0.0579
     13 C         140.6648  138.3380  163.8801 C.2     1  UNL1        0.2492
     14 O         140.9167  136.8680  164.0407 O.2     1  UNL1       -0.2699
     15 N         140.1208  138.8688  162.5869 N.am    1  UNL1       -0.2761
     16 C         139.8689  140.3387  162.4262 C.3     1  UNL1        0.0940
     17 C         139.3249  140.8695  161.1330 C.3     1  UNL1        0.0300
     18 C         139.0330  139.9304  160.0004 C.3     1  UNL1        0.0985
     19 C         139.2849  138.4604  160.1610 C.3     1  UNL1        0.0300
     20 C         139.8289  137.9296  161.4542 C.3     1  UNL1        0.0940
     21 C         138.4890  140.4612  158.7072 C.3     1  UNL1        0.3976
     22 F         137.9451  140.9920  157.4140 F       1  UNL1       -0.1701
     23 F         137.9997  141.6887  159.4169 F       1  UNL1       -0.1701
     24 F         138.9784  139.2336  157.9975 F       1  UNL1       -0.1701
     25 C         142.9499  142.1278  165.1148 C.3     1  UNL1        0.1776
     26 C         138.0833  144.0901  164.5256 C.3     1  UNL1        0.0776
     27 C         139.5077  143.7035  164.2579 C.ar    1  UNL1        0.1838
     28 N         140.2722  143.9731  162.9958 N.ar    1  UNL1       -0.1123
     29 N         141.6547  143.4157  163.1632 N.ar    1  UNL1       -0.0451
     30 N         141.7447  142.8016  164.5288 N.ar    1  UNL1       -0.1467
     31 N         140.4178  142.9795  165.2053 N.ar    1  UNL1       -0.1339
@<TRIPOS>BOND
     1    26    27    1
     2    27    28   ar
     3    28    29   ar
     4    29    30   ar
     5    30    25    1
     6    25     1    1
     7     1     2   ar
     8     2     3   ar
     9     3     7    1
    10     7     8    1
    11     7     9    1
    12     7    10    1
    13     3     4   ar
    14     4     5   ar
    15     5     6   ar
    16     6    11    1
    17    11    12    2
    18    12    13    1
    19    13    14    2
    20    13    15   am
    21    15    16    1
    22    16    17    1
    23    17    18    1
    24    18    21    1
    25    21    22    1
    26    21    23    1
    27    21    24    1
    28    18    19    1
    29    19    20    1
    30    30    31   ar
    31    31    27   ar
    32     6     1   ar
    33    20    15    1
@<TRIPOS>MOLECULE
*****
 31 33 0 0 0
SMALL
GASTEIGER

@<TRIPOS>ATOM
      1 C         140.4160  142.3404  166.2324 C.ar    1  UNL1        0.0040
      2 C         140.6574  142.4461  167.7090 C.ar    1  UNL1        0.0016
      3 C         140.2063  141.3458  168.6233 C.ar    1  UNL1        0.0712
      4 C         139.5139  140.1399  168.0609 C.ar    1  UNL1        0.0038
      5 C         139.2725  140.0342  166.5843 C.ar    1  UNL1       -0.0003
      6 C         139.7235  141.1344  165.6700 C.ar    1  UNL1       -0.0019
      7 C         140.4477  141.4515  170.1000 C.3     1  UNL1        0.4186
      8 F         140.6891  141.5571  171.5767 F       1  UNL1       -0.1659
      9 F         139.9665  140.0422  170.2794 F       1  UNL1       -0.1659
     10 F         140.9289  142.8608  169.9206 F       1  UNL1       -0.1659
     11 C         139.4821  141.0288  164.1933 C.2     1  UNL1        0.0044
     12 C         138.5213  141.9646  163.5216 C.2     1  UNL1        0.0579
     13 C         138.2799  141.8590  162.0449 C.2     1  UNL1        0.2492
     14 O         137.2984  140.8558  161.5153 O.2     1  UNL1       -0.2699
     15 N         139.0199  142.7565  161.0979 N.am    1  UNL1       -0.2761
     16 C         140.0014  143.7596  161.6275 C.3     1  UNL1        0.0940
     17 C         140.7414  144.6570  160.6804 C.3     1  UNL1        0.0300
     18 C         140.5000  144.5514  159.2038 C.3     1  UNL1        0.0985
     19 C         139.5185  143.5483  158.6741 C.3     1  UNL1        0.0300
     20 C         138.7785  142.6508  159.6212 C.3     1  UNL1        0.0940
     21 C         141.2400  145.4489  158.2568 C.3     1  UNL1        0.3976
     22 F         141.9800  146.3464  157.3097 F       1  UNL1       -0.1701
     23 F         140.0053  146.2827  158.0821 F       1  UNL1       -0.1701
     24 F         142.4746  144.6152  158.4314 F       1  UNL1       -0.1701
     25 C         140.8670  143.4406  165.3180 C.3     1  UNL1        0.1776
     26 C         145.6486  141.7581  163.8392 C.3     1  UNL1        0.0776
     27 C         144.4263  142.6105  164.0112 C.ar    1  UNL1        0.1838
     28 N         144.2208  143.9825  163.4407 N.ar    1  UNL1       -0.1123
     29 N         142.8624  144.4604  163.8608 N.ar    1  UNL1       -0.0451
     30 N         142.2285  143.3839  164.6909 N.ar    1  UNL1       -0.1467
     31 N         143.1950  142.2406  164.7838 N.ar    1  UNL1       -0.1339
@<TRIPOS>BOND
     1    26    27    1
     2    27    28   ar
     3    28    29   ar
     4    29    30   ar
     5    30    25    1
     6    25     1    1
     7     1     2   ar
     8     2     3   ar
     9     3     7    1
    10     7     8    1
    11     7     9    1
    12     7    10    1
    13     3     4   ar
    14     4     5   ar
    15     5     6   ar
    16     6    11    1
    17    11    12    2
    18    12    13    1
    19    13    14    2
    20    13    15   am
    21    15    16    1
    22    16    17    1
    23    17    18    1
    24    18    21    1
    25    21    22    1
    26    21    23    1
    27    21    24    1
    28    18    19    1
    29    19    20    1
    30    30    31   ar
    31    31    27   ar
    32     6     1   ar
    33    20    15    1
