@<TRIPOS>MOLECULE
*****
 28 32 0 0 0
SMALL
GASTEIGER

@<TRIPOS>ATOM
      1 C         141.8696  142.1361  167.2684 C.ar    1  UNL1        0.0200
      2 C         143.3440  142.3456  167.0887 C.ar    1  UNL1        0.1006
      3 N         143.8750  142.8574  165.7826 N.ar    1  UNL1       -0.2246
      4 C         142.9317  143.1598  164.6562 C.ar    1  UNL1        0.1702
      5 N         143.1610  143.6716  163.2649 N.ar    1  UNL1       -0.2052
      6 C         141.8283  143.7783  162.5848 C.ar    1  UNL1        0.1647
      7 S         140.7754  143.3325  163.5557 S.2     1  UNL1       -0.0499
      8 C         141.4574  142.9503  164.8359 C.ar    1  UNL1        0.0679
      9 C         140.9263  142.4384  166.1420 C.ar    1  UNL1        0.0112
     10 F         138.0219  140.0098  170.0387 F       1  UNL1       -0.1832
     11 C         139.4147  140.5611  169.9597 C.ar    1  UNL1        0.2223
     12 C         139.9458  141.0730  168.6535 C.ar    1  UNL1        0.0497
     13 C         141.3385  141.6243  168.5746 C.ar    1  UNL1        0.0069
     14 C         142.2002  141.6638  169.8018 C.ar    1  UNL1        0.0209
     15 C         141.6692  141.1520  171.1079 C.ar    1  UNL1        0.1013
     16 N         140.2763  140.6007  171.1869 N.ar    1  UNL1       -0.2165
     17 N         141.5903  144.2484  161.1803 N.pl3   1  UNL1       -0.2880
     18 C         140.5616  145.3054  160.9074 C.3     1  UNL1        0.0940
     19 C         140.3235  145.7755  159.5031 C.3     1  UNL1        0.0375
     20 C         141.1142  145.1885  158.3716 C.3     1  UNL1        0.0609
     21 C         142.1429  144.1315  158.6445 C.3     1  UNL1        0.0375
     22 C         142.3809  143.6614  160.0488 C.3     1  UNL1        0.0940
     23 N         140.8761  145.6585  156.9671 N.3     1  UNL1       -0.2738
     24 C         141.7829  145.2064  155.8611 C.3     1  UNL1        0.0720
     25 C         141.5449  145.6764  154.4567 C.3     1  UNL1        0.0174
     26 C         140.4001  146.5985  154.1583 C.3     1  UNL1        0.0029
     27 C         139.4933  147.0507  155.2643 C.3     1  UNL1        0.0174
     28 C         139.7313  146.5807  156.6687 C.3     1  UNL1        0.0720
@<TRIPOS>BOND
     1    10    11    1
     2    11    12   ar
     3    12    13   ar
     4    13     1    1
     5     1     2   ar
     6     2     3   ar
     7     3     4   ar
     8     4     5   ar
     9     5     6   ar
    10     6    17    1
    11    17    18    1
    12    18    19    1
    13    19    20    1
    14    20    23    1
    15    23    24    1
    16    24    25    1
    17    25    26    1
    18    26    27    1
    19    27    28    1
    20    20    21    1
    21    21    22    1
    22     6     7   ar
    23     7     8   ar
    24     8     9   ar
    25    13    14   ar
    26    14    15   ar
    27    15    16   ar
    28    16    11   ar
    29     9     1   ar
    30     8     4   ar
    31    22    17    1
    32    28    23    1
@<TRIPOS>MOLECULE
*****
 28 32 0 0 0
SMALL
GASTEIGER

@<TRIPOS>ATOM
      1 C         139.9645  140.3425  167.3412 C.ar    1  UNL1        0.0200
      2 C         138.7630  139.4502  167.2412 C.ar    1  UNL1        0.1006
      3 N         138.4503  138.7552  165.9492 N.ar    1  UNL1       -0.2246
      4 C         139.3392  138.9526  164.7572 C.ar    1  UNL1        0.1702
      5 N         139.2842  138.4037  163.3623 N.ar    1  UNL1       -0.2052
      6 C         140.4518  138.9567  162.6002 C.ar    1  UNL1        0.1647
      7 S         141.2284  139.8475  163.5241 S.2     1  UNL1       -0.0499
      8 C         140.5407  139.8449  164.8571 C.ar    1  UNL1        0.0679
      9 C         140.8534  140.5398  166.1491 C.ar    1  UNL1        0.0112
     10 F         140.6328  144.7296  170.0442 F       1  UNL1       -0.1832
     11 C         140.6114  143.2310  169.9847 C.ar    1  UNL1        0.2223
     12 C         140.2987  142.5360  168.6927 C.ar    1  UNL1        0.0497
     13 C         140.2773  141.0374  168.6332 C.ar    1  UNL1        0.0069
     14 C         140.5686  140.2337  169.8657 C.ar    1  UNL1        0.0209
     15 C         140.8813  140.9285  171.1577 C.ar    1  UNL1        0.1013
     16 N         140.9027  142.4273  171.2172 N.ar    1  UNL1       -0.2165
     17 N         140.7845  138.6695  161.1660 N.pl3   1  UNL1       -0.2880
     18 C         139.7175  138.7614  160.1156 C.3     1  UNL1        0.0940
     19 C         140.0501  138.4742  158.6815 C.3     1  UNL1        0.0375
     20 C         141.4497  138.0951  158.2977 C.3     1  UNL1        0.0609
     21 C         142.5167  138.0031  159.3480 C.3     1  UNL1        0.0375
     22 C         142.1841  138.2904  160.7821 C.3     1  UNL1        0.0940
     23 N         141.7824  137.8078  156.8634 N.3     1  UNL1       -0.2738
     24 C         141.0662  138.5386  155.7666 C.3     1  UNL1        0.0720
     25 C         141.3989  138.2514  154.3324 C.3     1  UNL1        0.0174
     26 C         142.4477  137.2334  153.9952 C.3     1  UNL1        0.0029
     27 C         143.1638  136.5027  155.0920 C.3     1  UNL1        0.0174
     28 C         142.8312  136.7899  156.5262 C.3     1  UNL1        0.0720
@<TRIPOS>BOND
     1    10    11    1
     2    11    12   ar
     3    12    13   ar
     4    13     1    1
     5     1     2   ar
     6     2     3   ar
     7     3     4   ar
     8     4     5   ar
     9     5     6   ar
    10     6    17    1
    11    17    18    1
    12    18    19    1
    13    19    20    1
    14    20    23    1
    15    23    24    1
    16    24    25    1
    17    25    26    1
    18    26    27    1
    19    27    28    1
    20    20    21    1
    21    21    22    1
    22     6     7   ar
    23     7     8   ar
    24     8     9   ar
    25    13    14   ar
    26    14    15   ar
    27    15    16   ar
    28    16    11   ar
    29     9     1   ar
    30     8     4   ar
    31    22    17    1
    32    28    23    1
@<TRIPOS>MOLECULE
*****
 28 32 0 0 0
SMALL
GASTEIGER

@<TRIPOS>ATOM
      1 C         140.0302  141.4644  166.7319 C.ar    1  UNL1        0.0200
      2 C         139.6722  140.1638  166.0762 C.ar    1  UNL1        0.1006
      3 N         139.5566  140.0836  164.5828 N.ar    1  UNL1       -0.2246
      4 C         139.7992  141.3041  163.7452 C.ar    1  UNL1        0.1702
      5 N         139.7582  141.5282  162.2625 N.ar    1  UNL1       -0.2052
      6 C         140.0910  142.9674  162.0020 C.ar    1  UNL1        0.1647
      7 S         140.3376  143.6328  163.3236 S.2     1  UNL1       -0.0499
      8 C         140.1572  142.6047  164.4009 C.ar    1  UNL1        0.0679
      9 C         140.2728  142.6849  165.8943 C.ar    1  UNL1        0.0112
     10 F         139.6175  139.2280  171.4040 F       1  UNL1       -0.1832
     11 C         139.9394  140.4265  170.5614 C.ar    1  UNL1        0.2223
     12 C         139.8239  140.3462  169.0679 C.ar    1  UNL1        0.0497
     13 C         140.1458  141.5447  168.2253 C.ar    1  UNL1        0.0069
     14 C         140.5833  142.8234  168.8761 C.ar    1  UNL1        0.0209
     15 C         140.6989  142.9037  170.3694 C.ar    1  UNL1        0.1013
     16 N         140.3769  141.7052  171.2121 N.ar    1  UNL1       -0.2165
     17 N         140.1643  143.6258  160.6561 N.pl3   1  UNL1       -0.2880
     18 C         139.4406  143.0258  159.4873 C.3     1  UNL1        0.0940
     19 C         139.5139  143.6841  158.1415 C.3     1  UNL1        0.0375
     20 C         140.3109  144.9425  157.9646 C.3     1  UNL1        0.0609
     21 C         141.0346  145.5425  159.1334 C.3     1  UNL1        0.0375
     22 C         140.9613  144.8842  160.4792 C.3     1  UNL1        0.0940
     23 N         140.3842  145.6009  156.6187 N.3     1  UNL1       -0.2738
     24 C         139.5334  146.8003  156.3232 C.3     1  UNL1        0.0720
     25 C         139.6067  147.4587  154.9775 C.3     1  UNL1        0.0174
     26 C         140.5308  146.9176  153.9272 C.3     1  UNL1        0.0029
     27 C         141.3816  145.7181  154.2227 C.3     1  UNL1        0.0174
     28 C         141.3083  145.0597  155.5684 C.3     1  UNL1        0.0720
@<TRIPOS>BOND
     1    10    11    1
     2    11    12   ar
     3    12    13   ar
     4    13     1    1
     5     1     2   ar
     6     2     3   ar
     7     3     4   ar
     8     4     5   ar
     9     5     6   ar
    10     6    17    1
    11    17    18    1
    12    18    19    1
    13    19    20    1
    14    20    23    1
    15    23    24    1
    16    24    25    1
    17    25    26    1
    18    26    27    1
    19    27    28    1
    20    20    21    1
    21    21    22    1
    22     6     7   ar
    23     7     8   ar
    24     8     9   ar
    25    13    14   ar
    26    14    15   ar
    27    15    16   ar
    28    16    11   ar
    29     9     1   ar
    30     8     4   ar
    31    22    17    1
    32    28    23    1
@<TRIPOS>MOLECULE
*****
 28 32 0 0 0
SMALL
GASTEIGER

@<TRIPOS>ATOM
      1 C         140.3885  141.6162  167.0982 C.ar    1  UNL1        0.0200
      2 C         139.4753  140.5438  166.5826 C.ar    1  UNL1        0.1006
      3 N         139.0720  140.5330  165.1378 N.ar    1  UNL1       -0.2246
      4 C         139.5821  141.5945  164.2088 C.ar    1  UNL1        0.1702
      5 N         139.3584  141.8400  162.7460 N.ar    1  UNL1       -0.2052
      6 C         140.1335  143.0641  162.3577 C.ar    1  UNL1        0.1647
      7 S         140.8361  143.5751  163.5804 S.2     1  UNL1       -0.0499
      8 C         140.4953  142.6668  164.7245 C.ar    1  UNL1        0.0679
      9 C         140.8985  142.6777  166.1692 C.ar    1  UNL1        0.0112
     10 F         143.2249  143.6196  170.9636 F       1  UNL1       -0.1832
     11 C         142.2100  142.6288  170.4757 C.ar    1  UNL1        0.2223
     12 C         141.8067  142.6179  169.0309 C.ar    1  UNL1        0.0497
     13 C         140.7918  141.6271  168.5430 C.ar    1  UNL1        0.0069
     14 C         140.1801  140.6471  169.4998 C.ar    1  UNL1        0.0209
     15 C         140.5833  140.6579  170.9445 C.ar    1  UNL1        0.1013
     16 N         141.5983  141.6488  171.4325 N.ar    1  UNL1       -0.2165
     17 N         140.1951  143.6707  160.9871 N.pl3   1  UNL1       -0.2880
     18 C         140.9919  144.9202  160.7552 C.3     1  UNL1        0.0940
     19 C         141.0536  145.5269  159.3848 C.3     1  UNL1        0.0375
     20 C         140.3185  144.8840  158.2463 C.3     1  UNL1        0.0609
     21 C         139.5217  143.6345  158.4782 C.3     1  UNL1        0.0375
     22 C         139.4600  143.0278  159.8486 C.3     1  UNL1        0.0940
     23 N         140.3802  145.4906  156.8757 N.3     1  UNL1       -0.2738
     24 C         141.2617  144.8826  155.8254 C.3     1  UNL1        0.0720
     25 C         141.3233  145.4891  154.4549 C.3     1  UNL1        0.0174
     26 C         140.5035  146.7038  154.1348 C.3     1  UNL1        0.0029
     27 C         139.6220  147.3118  155.1851 C.3     1  UNL1        0.0174
     28 C         139.5603  146.7053  156.5556 C.3     1  UNL1        0.0720
@<TRIPOS>BOND
     1    10    11    1
     2    11    12   ar
     3    12    13   ar
     4    13     1    1
     5     1     2   ar
     6     2     3   ar
     7     3     4   ar
     8     4     5   ar
     9     5     6   ar
    10     6    17    1
    11    17    18    1
    12    18    19    1
    13    19    20    1
    14    20    23    1
    15    23    24    1
    16    24    25    1
    17    25    26    1
    18    26    27    1
    19    27    28    1
    20    20    21    1
    21    21    22    1
    22     6     7   ar
    23     7     8   ar
    24     8     9   ar
    25    13    14   ar
    26    14    15   ar
    27    15    16   ar
    28    16    11   ar
    29     9     1   ar
    30     8     4   ar
    31    22    17    1
    32    28    23    1
@<TRIPOS>MOLECULE
*****
 28 32 0 0 0
SMALL
GASTEIGER

@<TRIPOS>ATOM
      1 C         141.3274  142.2418  166.4850 C.ar    1  UNL1        0.0200
      2 C         140.5838  143.2659  165.6799 C.ar    1  UNL1        0.1006
      3 N         140.3997  143.0704  164.2041 N.ar    1  UNL1       -0.2246
      4 C         140.9593  141.8509  163.5335 C.ar    1  UNL1        0.1702
      5 N         140.9357  141.3904  162.1061 N.ar    1  UNL1       -0.2052
      6 C         141.6647  140.0818  162.0291 C.ar    1  UNL1        0.1647
      7 S         142.1388  139.7335  163.4089 S.2     1  UNL1       -0.0499
      8 C         141.7029  140.8268  164.3387 C.ar    1  UNL1        0.0679
      9 C         141.8869  141.0223  165.8144 C.ar    1  UNL1        0.0112
     10 F         139.3690  143.4555  171.1425 F       1  UNL1       -0.1832
     11 C         140.5323  143.0441  170.2896 C.ar    1  UNL1        0.2223
     12 C         140.3482  142.8487  168.8138 C.ar    1  UNL1        0.0497
     13 C         141.5114  142.4372  167.9609 C.ar    1  UNL1        0.0069
     14 C         142.8588  142.2212  168.5837 C.ar    1  UNL1        0.0209
     15 C         143.0429  142.4166  170.0594 C.ar    1  UNL1        0.1013
     16 N         141.8796  142.8280  170.9124 N.ar    1  UNL1       -0.2165
     17 N         141.8815  139.2648  160.7899 N.pl3   1  UNL1       -0.2880
     18 C         141.2223  139.6646  159.5031 C.3     1  UNL1        0.0940
     19 C         141.4391  138.8477  158.2639 C.3     1  UNL1        0.0375
     20 C         142.3150  137.6310  158.3115 C.3     1  UNL1        0.0609
     21 C         142.9742  137.2312  159.5982 C.3     1  UNL1        0.0375
     22 C         142.7574  138.0481  160.8374 C.3     1  UNL1        0.0940
     23 N         142.5319  136.8141  157.0722 N.3     1  UNL1       -0.2738
     24 C         143.3195  135.5394  157.1426 C.3     1  UNL1        0.0720
     25 C         143.5363  134.7224  155.9034 C.3     1  UNL1        0.0174
     26 C         142.9655  135.1801  154.5940 C.3     1  UNL1        0.0029
     27 C         142.1779  136.4548  154.5237 C.3     1  UNL1        0.0174
     28 C         141.9611  137.2718  155.7628 C.3     1  UNL1        0.0720
@<TRIPOS>BOND
     1    10    11    1
     2    11    12   ar
     3    12    13   ar
     4    13     1    1
     5     1     2   ar
     6     2     3   ar
     7     3     4   ar
     8     4     5   ar
     9     5     6   ar
    10     6    17    1
    11    17    18    1
    12    18    19    1
    13    19    20    1
    14    20    23    1
    15    23    24    1
    16    24    25    1
    17    25    26    1
    18    26    27    1
    19    27    28    1
    20    20    21    1
    21    21    22    1
    22     6     7   ar
    23     7     8   ar
    24     8     9   ar
    25    13    14   ar
    26    14    15   ar
    27    15    16   ar
    28    16    11   ar
    29     9     1   ar
    30     8     4   ar
    31    22    17    1
    32    28    23    1
@<TRIPOS>MOLECULE
*****
 28 32 0 0 0
SMALL
GASTEIGER

@<TRIPOS>ATOM
      1 C         140.5343  140.8610  166.2543 C.ar    1  UNL1        0.0200
      2 C         139.9277  139.6031  165.7070 C.ar    1  UNL1        0.1006
      3 N         140.2385  139.1689  164.3052 N.ar    1  UNL1       -0.2246
      4 C         141.1558  139.9926  163.4509 C.ar    1  UNL1        0.1702
      5 N         141.6427  139.8177  162.0428 N.ar    1  UNL1       -0.2052
      6 C         142.5502  140.9676  161.7200 C.ar    1  UNL1        0.1647
      7 S         142.6242  141.8531  162.9285 S.2     1  UNL1       -0.0499
      8 C         141.7624  141.2505  163.9982 C.ar    1  UNL1        0.0679
      9 C         141.4517  141.6848  165.3999 C.ar    1  UNL1        0.0112
     10 F         140.6777  144.4797  169.9805 F       1  UNL1       -0.1832
     11 C         140.2953  143.1047  169.5192 C.ar    1  UNL1        0.2223
     12 C         140.6060  142.6704  168.1174 C.ar    1  UNL1        0.0497
     13 C         140.2236  141.2953  167.6561 C.ar    1  UNL1        0.0069
     14 C         139.5305  140.3544  168.5965 C.ar    1  UNL1        0.0209
     15 C         139.2198  140.7886  169.9982 C.ar    1  UNL1        0.1013
     16 N         139.6022  142.1638  170.4596 N.ar    1  UNL1       -0.2165
     17 N         143.2592  141.1925  160.4174 N.pl3   1  UNL1       -0.2880
     18 C         143.4183  140.0614  159.4450 C.3     1  UNL1        0.0940
     19 C         144.1273  140.2863  158.1425 C.3     1  UNL1        0.0375
     20 C         144.6773  141.6422  157.8123 C.3     1  UNL1        0.0609
     21 C         144.5183  142.7732  158.7847 C.3     1  UNL1        0.0375
     22 C         143.8092  142.5483  160.0872 C.3     1  UNL1        0.0940
     23 N         145.3863  141.8671  156.5097 N.3     1  UNL1       -0.2738
     24 C         146.8307  142.2719  156.5021 C.3     1  UNL1        0.0720
     25 C         147.5397  142.4968  155.1996 C.3     1  UNL1        0.0174
     26 C         146.8045  142.3169  153.9046 C.3     1  UNL1        0.0029
     27 C         145.3602  141.9120  153.9122 C.3     1  UNL1        0.0174
     28 C         144.6511  141.6871  155.2147 C.3     1  UNL1        0.0720
@<TRIPOS>BOND
     1    10    11    1
     2    11    12   ar
     3    12    13   ar
     4    13     1    1
     5     1     2   ar
     6     2     3   ar
     7     3     4   ar
     8     4     5   ar
     9     5     6   ar
    10     6    17    1
    11    17    18    1
    12    18    19    1
    13    19    20    1
    14    20    23    1
    15    23    24    1
    16    24    25    1
    17    25    26    1
    18    26    27    1
    19    27    28    1
    20    20    21    1
    21    21    22    1
    22     6     7   ar
    23     7     8   ar
    24     8     9   ar
    25    13    14   ar
    26    14    15   ar
    27    15    16   ar
    28    16    11   ar
    29     9     1   ar
    30     8     4   ar
    31    22    17    1
    32    28    23    1
@<TRIPOS>MOLECULE
*****
 28 32 0 0 0
SMALL
GASTEIGER

@<TRIPOS>ATOM
      1 C         139.9301  145.5246  157.3700 C.ar    1  UNL1        0.0200
      2 C         139.6050  144.1116  156.9855 C.ar    1  UNL1        0.1006
      3 N         139.7489  143.0086  157.9917 N.ar    1  UNL1       -0.2246
      4 C         140.2179  143.3184  159.3824 C.ar    1  UNL1        0.1702
      5 N         140.4540  142.4461  160.5797 N.ar    1  UNL1       -0.2052
      6 C         140.9251  143.3200  161.7041 C.ar    1  UNL1        0.1647
      7 S         140.9801  144.7323  161.2018 S.2     1  UNL1       -0.0499
      8 C         140.5431  144.7313  159.7669 C.ar    1  UNL1        0.0679
      9 C         140.3992  145.8344  158.7607 C.ar    1  UNL1        0.0112
     10 F         137.9223  150.1099  155.9757 F       1  UNL1       -0.1832
     11 C         138.7823  148.9204  155.6667 C.ar    1  UNL1        0.2223
     12 C         138.9262  147.8172  156.6729 C.ar    1  UNL1        0.0497
     13 C         139.7862  146.6277  156.3638 C.ar    1  UNL1        0.0069
     14 C         140.5023  146.5414  155.0486 C.ar    1  UNL1        0.0209
     15 C         140.3584  147.6445  154.0425 C.ar    1  UNL1        0.1013
     16 N         139.4984  148.8340  154.3515 N.ar    1  UNL1       -0.2165
     17 N         141.2790  142.8620  163.0880 N.pl3   1  UNL1       -0.2880
     18 C         142.6730  143.0533  163.6077 C.3     1  UNL1        0.0940
     19 C         143.0270  142.5953  164.9915 C.3     1  UNL1        0.0375
     20 C         141.9869  141.9461  165.8556 C.3     1  UNL1        0.0609
     21 C         140.5929  141.7548  165.3359 C.3     1  UNL1        0.0375
     22 C         140.2389  142.2128  163.9521 C.3     1  UNL1        0.0940
     23 N         142.3408  141.4881  167.2395 N.3     1  UNL1       -0.2738
     24 C         143.0575  142.4151  168.1759 C.3     1  UNL1        0.0720
     25 C         143.4115  141.9572  169.5598 C.3     1  UNL1        0.0174
     26 C         143.0487  140.5722  170.0071 C.3     1  UNL1        0.0029
     27 C         142.3320  139.6452  169.0707 C.3     1  UNL1        0.0174
     28 C         141.9780  140.1031  167.6869 C.3     1  UNL1        0.0720
@<TRIPOS>BOND
     1    10    11    1
     2    11    12   ar
     3    12    13   ar
     4    13     1    1
     5     1     2   ar
     6     2     3   ar
     7     3     4   ar
     8     4     5   ar
     9     5     6   ar
    10     6    17    1
    11    17    18    1
    12    18    19    1
    13    19    20    1
    14    20    23    1
    15    23    24    1
    16    24    25    1
    17    25    26    1
    18    26    27    1
    19    27    28    1
    20    20    21    1
    21    21    22    1
    22     6     7   ar
    23     7     8   ar
    24     8     9   ar
    25    13    14   ar
    26    14    15   ar
    27    15    16   ar
    28    16    11   ar
    29     9     1   ar
    30     8     4   ar
    31    22    17    1
    32    28    23    1
@<TRIPOS>MOLECULE
*****
 28 32 0 0 0
SMALL
GASTEIGER

@<TRIPOS>ATOM
      1 C         141.7598  142.0592  167.4633 C.ar    1  UNL1        0.0200
      2 C         142.9713  141.3291  166.9644 C.ar    1  UNL1        0.1006
      3 N         143.3163  141.3582  165.5049 N.ar    1  UNL1       -0.2246
      4 C         142.4497  142.1173  164.5443 C.ar    1  UNL1        0.1702
      5 N         142.5377  142.3245  163.0613 N.ar    1  UNL1       -0.2052
      6 C         141.3805  143.1827  162.6437 C.ar    1  UNL1        0.1647
      7 S         140.5773  143.5058  163.8686 S.2     1  UNL1       -0.0499
      8 C         141.2381  142.8474  165.0433 C.ar    1  UNL1        0.0679
      9 C         140.8931  142.8184  166.5027 C.ar    1  UNL1        0.0112
     10 F         138.8498  143.7236  171.4335 F       1  UNL1       -0.1832
     11 C         139.9598  142.8624  170.9079 C.ar    1  UNL1        0.2223
     12 C         140.3048  142.8914  169.4484 C.ar    1  UNL1        0.0497
     13 C         141.4147  142.0302  168.9228 C.ar    1  UNL1        0.0069
     14 C         142.1797  141.1399  169.8567 C.ar    1  UNL1        0.0209
     15 C         141.8347  141.1108  171.3162 C.ar    1  UNL1        0.1013
     16 N         140.7247  141.9721  171.8418 N.ar    1  UNL1       -0.2165
     17 N         141.0793  143.6378  161.2464 N.pl3   1  UNL1       -0.2880
     18 C         141.2063  142.6775  160.1011 C.3     1  UNL1        0.0940
     19 C         140.9051  143.1325  158.7039 C.3     1  UNL1        0.0375
     20 C         140.4770  144.5478  158.4520 C.3     1  UNL1        0.0609
     21 C         140.3500  145.5081  159.5973 C.3     1  UNL1        0.0375
     22 C         140.6512  145.0531  160.9945 C.3     1  UNL1        0.0940
     23 N         140.1758  145.0029  157.0548 N.3     1  UNL1       -0.2738
     24 C         139.4172  144.1068  156.1212 C.3     1  UNL1        0.0720
     25 C         139.1160  144.5618  154.7241 C.3     1  UNL1        0.0174
     26 C         139.5734  145.9130  154.2604 C.3     1  UNL1        0.0029
     27 C         140.3319  146.8092  155.1939 C.3     1  UNL1        0.0174
     28 C         140.6331  146.3542  156.5911 C.3     1  UNL1        0.0720
@<TRIPOS>BOND
     1    10    11    1
     2    11    12   ar
     3    12    13   ar
     4    13     1    1
     5     1     2   ar
     6     2     3   ar
     7     3     4   ar
     8     4     5   ar
     9     5     6   ar
    10     6    17    1
    11    17    18    1
    12    18    19    1
    13    19    20    1
    14    20    23    1
    15    23    24    1
    16    24    25    1
    17    25    26    1
    18    26    27    1
    19    27    28    1
    20    20    21    1
    21    21    22    1
    22     6     7   ar
    23     7     8   ar
    24     8     9   ar
    25    13    14   ar
    26    14    15   ar
    27    15    16   ar
    28    16    11   ar
    29     9     1   ar
    30     8     4   ar
    31    22    17    1
    32    28    23    1
@<TRIPOS>MOLECULE
*****
 28 32 0 0 0
SMALL
GASTEIGER

@<TRIPOS>ATOM
      1 C         141.0784  145.4429  157.8944 C.ar    1  UNL1        0.0200
      2 C         142.3395  144.6452  157.7423 C.ar    1  UNL1        0.1006
      3 N         142.8934  143.8877  158.9125 N.ar    1  UNL1       -0.2246
      4 C         142.1862  143.9279  160.2347 C.ar    1  UNL1        0.1702
      5 N         142.4918  143.2875  161.5563 N.ar    1  UNL1       -0.2052
      6 C         141.4195  143.6895  162.5251 C.ar    1  UNL1        0.1647
      7 S         140.4512  144.5783  161.8023 S.2     1  UNL1       -0.0499
      8 C         140.9251  144.7257  160.3867 C.ar    1  UNL1        0.0679
      9 C         140.3712  145.4831  159.2166 C.ar    1  UNL1        0.0112
     10 F         141.1328  146.5524  152.8183 F       1  UNL1       -0.1832
     11 C         140.5516  146.7552  154.1861 C.ar    1  UNL1        0.2223
     12 C         141.1056  145.9977  155.3563 C.ar    1  UNL1        0.0497
     13 C         140.5244  146.2005  156.7242 C.ar    1  UNL1        0.0069
     14 C         139.3892  147.1608  156.9219 C.ar    1  UNL1        0.0209
     15 C         138.8352  147.9183  155.7518 C.ar    1  UNL1        0.1013
     16 N         139.4164  147.7155  154.3838 N.ar    1  UNL1       -0.2165
     17 N         141.3310  143.2754  163.9642 N.pl3   1  UNL1       -0.2880
     18 C         140.0908  143.5705  164.7546 C.3     1  UNL1        0.0940
     19 C         140.0022  143.1564  166.1935 C.3     1  UNL1        0.0375
     20 C         141.1539  142.4472  166.8421 C.3     1  UNL1        0.0609
     21 C         142.3941  142.1521  166.0517 C.3     1  UNL1        0.0375
     22 C         142.4826  142.5662  164.6127 C.3     1  UNL1        0.0940
     23 N         141.0653  142.0331  168.2811 N.3     1  UNL1       -0.2738
     24 C         140.0155  141.0542  168.7166 C.3     1  UNL1        0.0720
     25 C         139.9270  140.6401  170.1555 C.3     1  UNL1        0.0174
     26 C         140.8882  141.2049  171.1590 C.3     1  UNL1        0.0029
     27 C         141.9380  142.1838  170.7235 C.3     1  UNL1        0.0174
     28 C         142.0266  142.5979  169.2846 C.3     1  UNL1        0.0720
@<TRIPOS>BOND
     1    10    11    1
     2    11    12   ar
     3    12    13   ar
     4    13     1    1
     5     1     2   ar
     6     2     3   ar
     7     3     4   ar
     8     4     5   ar
     9     5     6   ar
    10     6    17    1
    11    17    18    1
    12    18    19    1
    13    19    20    1
    14    20    23    1
    15    23    24    1
    16    24    25    1
    17    25    26    1
    18    26    27    1
    19    27    28    1
    20    20    21    1
    21    21    22    1
    22     6     7   ar
    23     7     8   ar
    24     8     9   ar
    25    13    14   ar
    26    14    15   ar
    27    15    16   ar
    28    16    11   ar
    29     9     1   ar
    30     8     4   ar
    31    22    17    1
    32    28    23    1
