@<TRIPOS>MOLECULE
*****
 31 33 0 0 0
SMALL
GASTEIGER

@<TRIPOS>ATOM
      1 N         144.7637  139.4819  162.2599 N.pl3   1  UNL1       -0.3288
      2 C         143.4234  139.1478  162.8446 C.ar    1  UNL1        0.1948
      3 N         142.3274  138.3869  162.1594 N.ar    1  UNL1       -0.2139
      4 C         141.1703  138.2848  163.1085 C.ar    1  UNL1        0.0999
      5 C         139.8191  137.6466  162.9790 C.ar    1  UNL1        0.0206
      6 C         138.8489  137.7062  164.1213 C.ar    1  UNL1        0.0055
      7 C         139.2299  138.4042  165.3932 C.ar    1  UNL1        0.0730
      8 C         140.5811  139.0424  165.5228 C.ar    1  UNL1        0.0226
      9 C         141.5513  138.9827  164.3805 C.ar    1  UNL1        0.0799
     10 N         142.9438  139.5161  164.2173 N.ar    1  UNL1       -0.2971
     11 H         144.9870  139.1948  161.3450 H       1  UNL1        0.1451
     12 H         145.4201  139.9882  162.7910 H       1  UNL1        0.1451
     13 C         138.2595  138.4638  166.5356 C.3     1  UNL1        0.4186
     14 F         137.2893  138.5235  167.6780 F       1  UNL1       -0.1659
     15 F         137.8289  137.0570  166.2434 F       1  UNL1       -0.1659
     16 F         138.6901  139.8706  166.8278 F       1  UNL1       -0.1659
     17 C         143.7202  140.2831  165.2463 C.3     1  UNL1        0.1424
     18 C         143.3989  141.7247  165.5076 C.3     1  UNL1        0.1561
     19 O         143.9430  142.7904  164.6029 O.3     1  UNL1       -0.3780
     20 H         143.6425  143.6599  164.9103 H       1  UNL1        0.2109
     21 C         142.5335  142.1009  166.6736 C.ar    1  UNL1        0.0167
     22 C         143.0910  142.0597  168.0656 C.ar    1  UNL1       -0.0011
     23 C         142.2256  142.4359  169.2316 C.ar    1  UNL1        0.0037
     24 C         140.8026  142.8532  169.0056 C.ar    1  UNL1        0.0722
     25 C         140.2451  142.8943  167.6137 C.ar    1  UNL1        0.0150
     26 C         141.1105  142.5182  166.4477 C.ar    1  UNL1        0.0559
     27 CL        140.5530  142.5593  165.0558 Cl      1  UNL1       -0.0825
     28 C         139.9371  143.2294  170.1716 C.3     1  UNL1        0.4186
     29 F         139.0716  143.6055  171.3375 F       1  UNL1       -0.1659
     30 F         139.5169  141.7973  170.3216 F       1  UNL1       -0.1659
     31 F         140.3573  144.6614  170.0215 F       1  UNL1       -0.1659
@<TRIPOS>BOND
     1     1     2    1
     2     2     3   ar
     3     3     4   ar
     4     4     5   ar
     5     5     6   ar
     6     6     7   ar
     7     7    13    1
     8    13    14    1
     9    13    15    1
    10    13    16    1
    11     7     8   ar
    12     8     9   ar
    13     9    10   ar
    14    10    17    1
    15    17    18    1
    16    18    19    1
    17    18    21    1
    18    21    22   ar
    19    22    23   ar
    20    23    24   ar
    21    24    28    1
    22    28    29    1
    23    28    30    1
    24    28    31    1
    25    24    25   ar
    26    25    26   ar
    27    26    27    1
    28    10     2   ar
    29    26    21   ar
    30     9     4   ar
    31     1    11    1
    32     1    12    1
    33    19    20    1
@<TRIPOS>MOLECULE
*****
 31 33 0 0 0
SMALL
GASTEIGER

@<TRIPOS>ATOM
      1 N         143.7225  145.4577  162.8508 N.pl3   1  UNL1       -0.3288
      2 C         143.6809  144.0023  163.2114 C.ar    1  UNL1        0.1948
      3 N         144.8665  143.1350  163.5150 N.ar    1  UNL1       -0.2139
      4 C         144.3649  141.7553  163.8229 C.ar    1  UNL1        0.0999
      5 C         145.0767  140.4876  164.1918 C.ar    1  UNL1        0.0206
      6 C         144.2929  139.2345  164.4474 C.ar    1  UNL1        0.0055
      7 C         142.7973  139.2491  164.3342 C.ar    1  UNL1        0.0730
      8 C         142.0854  140.5168  163.9652 C.ar    1  UNL1        0.0226
      9 C         142.8692  141.7699  163.7096 C.ar    1  UNL1        0.0799
     10 N         142.4466  143.1586  163.3317 N.ar    1  UNL1       -0.2971
     11 H         144.5862  145.9271  162.7969 H       1  UNL1        0.1451
     12 H         142.8860  145.9437  162.6681 H       1  UNL1        0.1451
     13 C         142.0135  137.9959  164.5898 C.3     1  UNL1        0.4186
     14 F         141.2297  136.7428  164.8454 F       1  UNL1       -0.1659
     15 F         142.9954  137.5984  165.6518 F       1  UNL1       -0.1659
     16 F         141.0316  138.3935  163.5278 F       1  UNL1       -0.1659
     17 C         141.0369  143.6223  163.1125 C.3     1  UNL1        0.1424
     18 C         140.0594  143.6145  164.2501 C.3     1  UNL1        0.1561
     19 O         139.5879  144.9094  164.8427 O.3     1  UNL1       -0.3780
     20 H         138.9640  144.7273  165.5627 H       1  UNL1        0.2109
     21 C         139.5532  142.3120  164.7953 C.ar    1  UNL1        0.0167
     22 C         138.6237  141.4666  163.9761 C.ar    1  UNL1       -0.0011
     23 C         138.1175  140.1640  164.5213 C.ar    1  UNL1        0.0037
     24 C         138.5410  139.7069  165.8857 C.ar    1  UNL1        0.0722
     25 C         139.4705  140.5523  166.7050 C.ar    1  UNL1        0.0150
     26 C         139.9767  141.8549  166.1598 C.ar    1  UNL1        0.0559
     27 CL        140.9062  142.7003  166.9790 Cl      1  UNL1       -0.0825
     28 C         138.0349  138.4044  166.4310 C.3     1  UNL1        0.4186
     29 F         137.5287  137.1019  166.9764 F       1  UNL1       -0.1659
     30 F         137.6965  139.0787  167.7275 F       1  UNL1       -0.1659
     31 F         138.3732  137.7302  165.1346 F       1  UNL1       -0.1659
@<TRIPOS>BOND
     1     1     2    1
     2     2     3   ar
     3     3     4   ar
     4     4     5   ar
     5     5     6   ar
     6     6     7   ar
     7     7    13    1
     8    13    14    1
     9    13    15    1
    10    13    16    1
    11     7     8   ar
    12     8     9   ar
    13     9    10   ar
    14    10    17    1
    15    17    18    1
    16    18    19    1
    17    18    21    1
    18    21    22   ar
    19    22    23   ar
    20    23    24   ar
    21    24    28    1
    22    28    29    1
    23    28    30    1
    24    28    31    1
    25    24    25   ar
    26    25    26   ar
    27    26    27    1
    28    10     2   ar
    29    26    21   ar
    30     9     4   ar
    31     1    11    1
    32     1    12    1
    33    19    20    1
@<TRIPOS>MOLECULE
*****
 31 33 0 0 0
SMALL
GASTEIGER

@<TRIPOS>ATOM
      1 N         138.1327  137.6754  161.7243 N.pl3   1  UNL1       -0.3288
      2 C         138.1251  139.1118  162.1563 C.ar    1  UNL1        0.1948
      3 N         137.8941  140.2984  161.2682 N.ar    1  UNL1       -0.2139
      4 C         137.9733  141.5338  162.1152 C.ar    1  UNL1        0.0999
      5 C         137.8268  142.9893  161.7835 C.ar    1  UNL1        0.0206
      6 C         137.9601  144.0217  162.8634 C.ar    1  UNL1        0.0055
      7 C         138.2401  143.5987  164.2750 C.ar    1  UNL1        0.0730
      8 C         138.3866  142.1432  164.6067 C.ar    1  UNL1        0.0226
      9 C         138.2533  141.1108  163.5268 C.ar    1  UNL1        0.0799
     10 N         138.3470  139.6139  163.5522 N.ar    1  UNL1       -0.2971
     11 H         137.9761  137.4444  160.7802 H       1  UNL1        0.1451
     12 H         138.2943  136.9635  162.3849 H       1  UNL1        0.1451
     13 C         138.3734  144.6312  165.3549 C.3     1  UNL1        0.4186
     14 F         138.5067  145.6637  166.4348 F       1  UNL1       -0.1659
     15 F         139.8631  144.6224  165.1795 F       1  UNL1       -0.1659
     16 F         136.8838  144.6401  165.5304 F       1  UNL1       -0.1659
     17 C         138.6156  138.7677  164.7613 C.3     1  UNL1        0.1424
     18 C         139.9678  138.7943  165.4099 C.3     1  UNL1        0.1561
     19 O         140.9810  137.7399  165.0754 O.3     1  UNL1       -0.3780
     20 H         141.7947  137.9024  165.5778 H       1  UNL1        0.2109
     21 C         140.3070  139.8751  166.3932 C.ar    1  UNL1        0.0167
     22 C         139.6450  139.8994  167.7390 C.ar    1  UNL1       -0.0011
     23 C         139.9842  140.9802  168.7222 C.ar    1  UNL1        0.0037
     24 C         140.9853  142.0368  168.3596 C.ar    1  UNL1        0.0722
     25 C         141.6472  142.0125  167.0138 C.ar    1  UNL1        0.0150
     26 C         141.3080  140.9317  166.0306 C.ar    1  UNL1        0.0559
     27 CL        141.9700  140.9074  164.6848 Cl      1  UNL1       -0.0825
     28 C         141.3245  143.1177  169.3428 C.3     1  UNL1        0.4186
     29 F         141.6638  144.1985  170.3260 F       1  UNL1       -0.1659
     30 F         142.5895  142.3952  169.7006 F       1  UNL1       -0.1659
     31 F         140.0596  143.8401  168.9851 F       1  UNL1       -0.1659
@<TRIPOS>BOND
     1     1     2    1
     2     2     3   ar
     3     3     4   ar
     4     4     5   ar
     5     5     6   ar
     6     6     7   ar
     7     7    13    1
     8    13    14    1
     9    13    15    1
    10    13    16    1
    11     7     8   ar
    12     8     9   ar
    13     9    10   ar
    14    10    17    1
    15    17    18    1
    16    18    19    1
    17    18    21    1
    18    21    22   ar
    19    22    23   ar
    20    23    24   ar
    21    24    28    1
    22    28    29    1
    23    28    30    1
    24    28    31    1
    25    24    25   ar
    26    25    26   ar
    27    26    27    1
    28    10     2   ar
    29    26    21   ar
    30     9     4   ar
    31     1    11    1
    32     1    12    1
    33    19    20    1
@<TRIPOS>MOLECULE
*****
 31 33 0 0 0
SMALL
GASTEIGER

@<TRIPOS>ATOM
      1 N         141.7990  145.1495  160.8963 N.pl3   1  UNL1       -0.3288
      2 C         142.4679  144.0665  161.6898 C.ar    1  UNL1        0.1948
      3 N         143.9468  143.8879  161.8660 N.ar    1  UNL1       -0.2139
      4 C         144.1683  142.6830  162.7316 C.ar    1  UNL1        0.0999
      5 C         145.4185  142.0281  163.2394 C.ar    1  UNL1        0.0206
      6 C         145.3268  140.8073  164.1060 C.ar    1  UNL1        0.0055
      7 C         143.9848  140.2413  164.4648 C.ar    1  UNL1        0.0730
      8 C         142.7346  140.8961  163.9570 C.ar    1  UNL1        0.0226
      9 C         142.8263  142.1170  163.0904 C.ar    1  UNL1        0.0799
     10 N         141.7754  142.9721  162.4465 N.ar    1  UNL1       -0.2971
     11 H         142.3423  145.8266  160.4319 H       1  UNL1        0.1451
     12 H         140.8167  145.1832  160.8398 H       1  UNL1        0.1451
     13 C         143.8932  139.0204  165.3315 C.3     1  UNL1        0.4186
     14 F         143.8015  137.7995  166.1981 F       1  UNL1       -0.1659
     15 F         142.4286  139.2737  165.5335 F       1  UNL1       -0.1659
     16 F         145.3577  138.7671  165.1295 F       1  UNL1       -0.1659
     17 C         140.2924  142.7684  162.5425 C.3     1  UNL1        0.1424
     18 C         139.5592  143.1704  163.7877 C.3     1  UNL1        0.1561
     19 O         138.6100  144.3316  163.7574 O.3     1  UNL1       -0.3780
     20 H         138.2233  144.4562  164.6382 H       1  UNL1        0.2109
     21 C         139.7750  142.4114  165.0634 C.ar    1  UNL1        0.0167
     22 C         140.6940  142.9584  166.1153 C.ar    1  UNL1       -0.0011
     23 C         140.9098  142.1993  167.3909 C.ar    1  UNL1        0.0037
     24 C         140.2067  140.8934  167.6147 C.ar    1  UNL1        0.0722
     25 C         139.2878  140.3464  166.5629 C.ar    1  UNL1        0.0150
     26 C         139.0719  141.1055  165.2872 C.ar    1  UNL1        0.0559
     27 CL        138.1530  140.5585  164.2354 Cl      1  UNL1       -0.0825
     28 C         140.4225  140.1343  168.8904 C.3     1  UNL1        0.4186
     29 F         140.6383  139.3751  170.1660 F       1  UNL1       -0.1659
     30 F         141.7593  139.6733  168.3898 F       1  UNL1       -0.1659
     31 F         139.0857  140.5953  169.3908 F       1  UNL1       -0.1659
@<TRIPOS>BOND
     1     1     2    1
     2     2     3   ar
     3     3     4   ar
     4     4     5   ar
     5     5     6   ar
     6     6     7   ar
     7     7    13    1
     8    13    14    1
     9    13    15    1
    10    13    16    1
    11     7     8   ar
    12     8     9   ar
    13     9    10   ar
    14    10    17    1
    15    17    18    1
    16    18    19    1
    17    18    21    1
    18    21    22   ar
    19    22    23   ar
    20    23    24   ar
    21    24    28    1
    22    28    29    1
    23    28    30    1
    24    28    31    1
    25    24    25   ar
    26    25    26   ar
    27    26    27    1
    28    10     2   ar
    29    26    21   ar
    30     9     4   ar
    31     1    11    1
    32     1    12    1
    33    19    20    1
@<TRIPOS>MOLECULE
*****
 31 33 0 0 0
SMALL
GASTEIGER

@<TRIPOS>ATOM
      1 N         141.8692  145.0959  161.3018 N.pl3   1  UNL1       -0.3288
      2 C         142.3394  143.7820  161.8517 C.ar    1  UNL1        0.1948
      3 N         142.9948  142.6826  161.0695 N.ar    1  UNL1       -0.2139
      4 C         143.2973  141.5579  162.0147 C.ar    1  UNL1        0.0999
      5 C         143.9387  140.2179  161.8077 C.ar    1  UNL1        0.0206
      6 C         144.1118  139.2821  162.9672 C.ar    1  UNL1        0.0055
      7 C         143.6433  139.6863  164.3336 C.ar    1  UNL1        0.0730
      8 C         143.0019  141.0263  164.5406 C.ar    1  UNL1        0.0226
      9 C         142.8289  141.9621  163.3812 C.ar    1  UNL1        0.0799
     10 N         142.2369  143.3367  163.2804 N.ar    1  UNL1       -0.2971
     11 H         141.9811  145.2974  160.3447 H       1  UNL1        0.1451
     12 H         141.4486  145.7569  161.8980 H       1  UNL1        0.1451
     13 C         143.8164  138.7505  165.4931 C.3     1  UNL1        0.4186
     14 F         143.9894  137.8147  166.6525 F       1  UNL1       -0.1659
     15 F         145.2960  138.7210  165.2486 F       1  UNL1       -0.1659
     16 F         142.3368  138.7799  165.7376 F       1  UNL1       -0.1659
     17 C         141.6461  144.1271  164.4101 C.3     1  UNL1        0.1424
     18 C         140.2052  143.9407  164.7828 C.3     1  UNL1        0.1561
     19 O         139.2728  145.1158  164.7845 O.3     1  UNL1       -0.3780
     20 H         138.3856  144.8243  165.0467 H       1  UNL1        0.2109
     21 C         139.6965  142.5793  165.1540 C.ar    1  UNL1        0.0167
     22 C         140.0987  141.9585  166.4589 C.ar    1  UNL1       -0.0011
     23 C         139.5900  140.5970  166.8301 C.ar    1  UNL1        0.0037
     24 C         138.6791  139.8565  165.8964 C.ar    1  UNL1        0.0722
     25 C         138.2770  140.4773  164.5915 C.ar    1  UNL1        0.0150
     26 C         138.7857  141.8387  164.2203 C.ar    1  UNL1        0.0559
     27 CL        138.3835  142.4596  162.9154 Cl      1  UNL1       -0.0825
     28 C         138.1704  138.4950  166.2675 C.3     1  UNL1        0.4186
     29 F         137.6616  137.1336  166.6387 F       1  UNL1       -0.1659
     30 F         137.7402  139.0204  167.6050 F       1  UNL1       -0.1659
     31 F         138.6006  137.9697  164.9300 F       1  UNL1       -0.1659
@<TRIPOS>BOND
     1     1     2    1
     2     2     3   ar
     3     3     4   ar
     4     4     5   ar
     5     5     6   ar
     6     6     7   ar
     7     7    13    1
     8    13    14    1
     9    13    15    1
    10    13    16    1
    11     7     8   ar
    12     8     9   ar
    13     9    10   ar
    14    10    17    1
    15    17    18    1
    16    18    19    1
    17    18    21    1
    18    21    22   ar
    19    22    23   ar
    20    23    24   ar
    21    24    28    1
    22    28    29    1
    23    28    30    1
    24    28    31    1
    25    24    25   ar
    26    25    26   ar
    27    26    27    1
    28    10     2   ar
    29    26    21   ar
    30     9     4   ar
    31     1    11    1
    32     1    12    1
    33    19    20    1
@<TRIPOS>MOLECULE
*****
 31 33 0 0 0
SMALL
GASTEIGER

@<TRIPOS>ATOM
      1 N         143.9465  145.5072  162.6103 N.pl3   1  UNL1       -0.3288
      2 C         142.7167  144.8158  163.1198 C.ar    1  UNL1        0.1948
      3 N         141.4248  145.4784  163.4967 N.ar    1  UNL1       -0.2139
      4 C         140.4726  144.4125  163.9517 C.ar    1  UNL1        0.0999
      5 C         139.0559  144.4745  164.4408 C.ar    1  UNL1        0.0206
      6 C         138.3426  143.2150  164.8342 C.ar    1  UNL1        0.0055
      7 C         139.0459  141.8936  164.7386 C.ar    1  UNL1        0.0730
      8 C         140.4626  141.8316  164.2495 C.ar    1  UNL1        0.0226
      9 C         141.1759  143.0911  163.8561 C.ar    1  UNL1        0.0799
     10 N         142.5628  143.3403  163.3420 N.ar    1  UNL1       -0.2971
     11 H         143.9503  146.4852  162.4975 H       1  UNL1        0.1451
     12 H         144.7498  144.9830  162.3888 H       1  UNL1        0.1451
     13 C         138.3325  140.6340  165.1320 C.3     1  UNL1        0.4186
     14 F         137.6191  139.3746  165.5254 F       1  UNL1       -0.1659
     15 F         139.2293  140.4993  166.3268 F       1  UNL1       -0.1659
     16 F         137.4357  140.7688  163.9372 F       1  UNL1       -0.1659
     17 C         143.6117  142.2972  163.0936 C.3     1  UNL1        0.1424
     18 C         144.4155  141.7545  164.2378 C.3     1  UNL1        0.1561
     19 O         145.9124  141.7120  164.1494 O.3     1  UNL1       -0.3780
     20 H         146.2740  141.3357  164.9670 H       1  UNL1        0.2109
     21 C         143.7226  141.2541  165.4705 C.ar    1  UNL1        0.0167
     22 C         143.3897  142.2049  166.5819 C.ar    1  UNL1       -0.0011
     23 C         142.6968  141.7045  167.8146 C.ar    1  UNL1        0.0037
     24 C         142.3368  140.2535  167.9359 C.ar    1  UNL1        0.0722
     25 C         142.6697  139.3027  166.8245 C.ar    1  UNL1        0.0150
     26 C         143.3626  139.8030  165.5918 C.ar    1  UNL1        0.0559
     27 CL        143.6955  138.8523  164.4804 Cl      1  UNL1       -0.0825
     28 C         141.6439  139.7530  169.1686 C.3     1  UNL1        0.4186
     29 F         140.9509  139.2527  170.4013 F       1  UNL1       -0.1659
     30 F         140.5852  140.8021  168.9993 F       1  UNL1       -0.1659
     31 F         142.7026  138.7040  169.3378 F       1  UNL1       -0.1659
@<TRIPOS>BOND
     1     1     2    1
     2     2     3   ar
     3     3     4   ar
     4     4     5   ar
     5     5     6   ar
     6     6     7   ar
     7     7    13    1
     8    13    14    1
     9    13    15    1
    10    13    16    1
    11     7     8   ar
    12     8     9   ar
    13     9    10   ar
    14    10    17    1
    15    17    18    1
    16    18    19    1
    17    18    21    1
    18    21    22   ar
    19    22    23   ar
    20    23    24   ar
    21    24    28    1
    22    28    29    1
    23    28    30    1
    24    28    31    1
    25    24    25   ar
    26    25    26   ar
    27    26    27    1
    28    10     2   ar
    29    26    21   ar
    30     9     4   ar
    31     1    11    1
    32     1    12    1
    33    19    20    1
@<TRIPOS>MOLECULE
*****
 31 33 0 0 0
SMALL
GASTEIGER

@<TRIPOS>ATOM
      1 N         138.9531  137.8564  161.1516 N.pl3   1  UNL1       -0.3288
      2 C         140.1481  138.4755  161.8140 C.ar    1  UNL1        0.1948
      3 N         141.4680  137.8051  162.0559 N.ar    1  UNL1       -0.2139
      4 C         142.3687  138.7889  162.7422 C.ar    1  UNL1        0.0999
      5 C         143.7852  138.6858  163.2247 C.ar    1  UNL1        0.0206
      6 C         144.4385  139.8610  163.8895 C.ar    1  UNL1        0.0055
      7 C         143.6752  141.1393  164.0719 C.ar    1  UNL1        0.0730
      8 C         142.2587  141.2424  163.5894 C.ar    1  UNL1        0.0226
      9 C         141.6054  140.0672  162.9246 C.ar    1  UNL1        0.0799
     10 N         140.2330  139.8735  162.3509 N.ar    1  UNL1       -0.2971
     11 H         138.9948  136.9267  160.8306 H       1  UNL1        0.1451
     12 H         138.1271  138.3799  161.0379 H       1  UNL1        0.1451
     13 C         144.3285  142.3146  164.7367 C.3     1  UNL1        0.4186
     14 F         144.9818  143.4898  165.4015 F       1  UNL1       -0.1659
     15 F         143.0158  142.6945  165.3552 F       1  UNL1       -0.1659
     16 F         145.6412  141.9347  164.1183 F       1  UNL1       -0.1659
     17 C         139.1379  140.8980  162.3197 C.3     1  UNL1        0.1424
     18 C         138.1688  140.9951  163.4605 C.3     1  UNL1        0.1561
     19 O         136.7329  141.3403  163.1976 O.3     1  UNL1       -0.3780
     20 H         136.2466  141.3615  164.0366 H       1  UNL1        0.2109
     21 C         138.6355  140.7469  164.8643 C.ar    1  UNL1        0.0167
     22 C         138.3337  139.4396  165.5349 C.ar    1  UNL1       -0.0011
     23 C         138.8005  139.1915  166.9387 C.ar    1  UNL1        0.0037
     24 C         139.5689  140.2507  167.6719 C.ar    1  UNL1        0.0722
     25 C         139.8707  141.5580  167.0012 C.ar    1  UNL1        0.0150
     26 C         139.4040  141.8061  165.5974 C.ar    1  UNL1        0.0559
     27 CL        139.7058  143.1134  164.9267 Cl      1  UNL1       -0.0825
     28 C         140.0357  140.0026  169.0757 C.3     1  UNL1        0.4186
     29 F         140.5024  139.7546  170.4795 F       1  UNL1       -0.1659
     30 F         138.6737  140.3611  169.5918 F       1  UNL1       -0.1659
     31 F         141.3976  139.6441  168.5595 F       1  UNL1       -0.1659
@<TRIPOS>BOND
     1     1     2    1
     2     2     3   ar
     3     3     4   ar
     4     4     5   ar
     5     5     6   ar
     6     6     7   ar
     7     7    13    1
     8    13    14    1
     9    13    15    1
    10    13    16    1
    11     7     8   ar
    12     8     9   ar
    13     9    10   ar
    14    10    17    1
    15    17    18    1
    16    18    19    1
    17    18    21    1
    18    21    22   ar
    19    22    23   ar
    20    23    24   ar
    21    24    28    1
    22    28    29    1
    23    28    30    1
    24    28    31    1
    25    24    25   ar
    26    25    26   ar
    27    26    27    1
    28    10     2   ar
    29    26    21   ar
    30     9     4   ar
    31     1    11    1
    32     1    12    1
    33    19    20    1
@<TRIPOS>MOLECULE
*****
 31 33 0 0 0
SMALL
GASTEIGER

@<TRIPOS>ATOM
      1 N         141.7279  137.5520  162.2105 N.pl3   1  UNL1       -0.3288
      2 C         140.8746  138.7143  162.6240 C.ar    1  UNL1        0.1948
      3 N         139.4281  138.9126  162.2799 N.ar    1  UNL1       -0.2139
      4 C         138.9774  140.2032  162.8975 C.ar    1  UNL1        0.0999
      5 C         137.6545  140.9100  162.8927 C.ar    1  UNL1        0.0206
      6 C         137.4995  142.2162  163.6138 C.ar    1  UNL1        0.0055
      7 C         138.6674  142.8154  164.3396 C.ar    1  UNL1        0.0730
      8 C         139.9903  142.1086  164.3443 C.ar    1  UNL1        0.0226
      9 C         140.1454  140.8024  163.6233 C.ar    1  UNL1        0.0799
     10 N         141.3178  139.8822  163.4543 N.ar    1  UNL1       -0.2971
     11 H         141.3441  136.8300  161.6622 H       1  UNL1        0.1451
     12 H         142.6718  137.5112  162.4873 H       1  UNL1        0.1451
     13 C         138.5123  144.1217  165.0606 C.3     1  UNL1        0.4186
     14 F         138.3573  145.4278  165.7817 F       1  UNL1       -0.1659
     15 F         137.3133  144.4439  164.2190 F       1  UNL1       -0.1659
     16 F         139.7114  143.7994  165.9022 F       1  UNL1       -0.1659
     17 C         142.6923  140.0930  164.0168 C.3     1  UNL1        0.1424
     18 C         142.9795  139.7423  165.4466 C.3     1  UNL1        0.1561
     19 O         144.0008  138.6925  165.7708 O.3     1  UNL1       -0.3780
     20 H         144.0636  138.5889  166.7332 H       1  UNL1        0.2109
     21 C         142.2455  140.4413  166.5523 C.ar    1  UNL1        0.0167
     22 C         141.1153  139.7504  167.2563 C.ar    1  UNL1       -0.0011
     23 C         140.3813  140.4494  168.3620 C.ar    1  UNL1        0.0037
     24 C         140.7775  141.8392  168.7639 C.ar    1  UNL1        0.0722
     25 C         141.9076  142.5301  168.0599 C.ar    1  UNL1        0.0150
     26 C         142.6416  141.8311  166.9542 C.ar    1  UNL1        0.0559
     27 CL        143.7717  142.5219  166.2503 Cl      1  UNL1       -0.0825
     28 C         140.0435  142.5383  169.8696 C.3     1  UNL1        0.4186
     29 F         139.3096  143.2374  170.9753 F       1  UNL1       -0.1659
     30 F         140.0692  143.8136  169.0803 F       1  UNL1       -0.1659
     31 F         140.0179  141.2630  170.6588 F       1  UNL1       -0.1659
@<TRIPOS>BOND
     1     1     2    1
     2     2     3   ar
     3     3     4   ar
     4     4     5   ar
     5     5     6   ar
     6     6     7   ar
     7     7    13    1
     8    13    14    1
     9    13    15    1
    10    13    16    1
    11     7     8   ar
    12     8     9   ar
    13     9    10   ar
    14    10    17    1
    15    17    18    1
    16    18    19    1
    17    18    21    1
    18    21    22   ar
    19    22    23   ar
    20    23    24   ar
    21    24    28    1
    22    28    29    1
    23    28    30    1
    24    28    31    1
    25    24    25   ar
    26    25    26   ar
    27    26    27    1
    28    10     2   ar
    29    26    21   ar
    30     9     4   ar
    31     1    11    1
    32     1    12    1
    33    19    20    1
@<TRIPOS>MOLECULE
*****
 31 33 0 0 0
SMALL
GASTEIGER

@<TRIPOS>ATOM
      1 N         138.1189  140.2664  159.4570 N.pl3   1  UNL1       -0.3288
      2 C         138.2443  139.8036  160.8783 C.ar    1  UNL1        0.1948
      3 N         138.5727  138.4102  161.3262 N.ar    1  UNL1       -0.2139
      4 C         138.5946  138.3985  162.8260 C.ar    1  UNL1        0.0999
      5 C         138.8606  137.3047  163.8173 C.ar    1  UNL1        0.0206
      6 C         138.8118  137.5970  165.2877 C.ar    1  UNL1        0.0055
      7 C         138.4970  138.9831  165.7668 C.ar    1  UNL1        0.0730
      8 C         138.2310  140.0769  164.7754 C.ar    1  UNL1        0.0226
      9 C         138.2798  139.7846  163.3050 C.ar    1  UNL1        0.0799
     10 N         138.0633  140.6530  162.1013 N.ar    1  UNL1       -0.2971
     11 H         138.2567  139.6304  158.7182 H       1  UNL1        0.1451
     12 H         137.8988  141.2061  159.2628 H       1  UNL1        0.1451
     13 C         138.4482  139.2754  167.2372 C.3     1  UNL1        0.4186
     14 F         138.3993  139.5677  168.7076 F       1  UNL1       -0.1659
     15 F         139.7258  140.0533  167.1251 F       1  UNL1       -0.1659
     16 F         137.1706  138.4975  167.3494 F       1  UNL1       -0.1659
     17 C         137.7252  142.1143  162.1177 C.3     1  UNL1        0.1424
     18 C         138.7951  143.1287  162.3934 C.3     1  UNL1        0.1561
     19 O         138.9405  144.3266  161.5023 O.3     1  UNL1       -0.3780
     20 H         139.6739  144.8773  161.8180 H       1  UNL1        0.2109
     21 C         139.7198  142.9454  163.5602 C.ar    1  UNL1        0.0167
     22 C         139.3173  143.4338  164.9201 C.ar    1  UNL1       -0.0011
     23 C         140.2420  143.2505  166.0869 C.ar    1  UNL1        0.0037
     24 C         141.5692  142.5787  165.8937 C.ar    1  UNL1        0.0722
     25 C         141.9717  142.0904  164.5337 C.ar    1  UNL1        0.0150
     26 C         141.0470  142.2737  163.3670 C.ar    1  UNL1        0.0559
     27 CL        141.4495  141.7853  162.0070 Cl      1  UNL1       -0.0825
     28 C         142.4940  142.3954  167.0604 C.3     1  UNL1        0.4186
     29 F         143.4187  142.2120  168.2272 F       1  UNL1       -0.1659
     30 F         141.3204  142.4195  167.9943 F       1  UNL1       -0.1659
     31 F         143.6675  142.3713  166.1265 F       1  UNL1       -0.1659
@<TRIPOS>BOND
     1     1     2    1
     2     2     3   ar
     3     3     4   ar
     4     4     5   ar
     5     5     6   ar
     6     6     7   ar
     7     7    13    1
     8    13    14    1
     9    13    15    1
    10    13    16    1
    11     7     8   ar
    12     8     9   ar
    13     9    10   ar
    14    10    17    1
    15    17    18    1
    16    18    19    1
    17    18    21    1
    18    21    22   ar
    19    22    23   ar
    20    23    24   ar
    21    24    28    1
    22    28    29    1
    23    28    30    1
    24    28    31    1
    25    24    25   ar
    26    25    26   ar
    27    26    27    1
    28    10     2   ar
    29    26    21   ar
    30     9     4   ar
    31     1    11    1
    32     1    12    1
    33    19    20    1
