@<TRIPOS>MOLECULE
*****
 32 35 0 0 0
SMALL
GASTEIGER

@<TRIPOS>ATOM
      1 N         141.8027  139.8441  161.2375 N.am    1  UNL1       -0.2684
      2 C         142.3892  139.0837  162.3899 C.2     1  UNL1        0.3078
      3 O         143.3865  137.9920  162.1381 O.2     1  UNL1       -0.2522
      4 N         141.9784  139.4151  163.7939 N.am    1  UNL1       -0.2605
      5 C         142.5650  138.6547  164.9463 C.3     1  UNL1        0.1164
      6 C         142.1542  138.9861  166.3502 C.3     1  UNL1        0.1137
      7 N         141.1568  140.0779  166.6020 N.pl3   1  UNL1       -0.2913
      8 C         140.5703  140.8383  165.4498 C.3     1  UNL1        0.0941
      9 C         139.5730  141.9300  165.7016 C.3     1  UNL1        0.0233
     10 C         140.9811  140.5068  164.0457 C.3     1  UNL1        0.1147
     11 H         141.1481  140.5607  161.4027 H       1  UNL1        0.1564
     12 C         140.7460  140.4093  168.0061 C.ar    1  UNL1        0.1365
     13 N         139.4491  139.8885  168.5508 N.ar    1  UNL1       -0.1990
     14 C         139.0383  140.2198  169.9548 C.ar    1  UNL1        0.2153
     15 N         137.7413  139.6990  170.4996 N.pl3   1  UNL1       -0.3274
     16 N         139.9245  141.0720  170.8143 N.ar    1  UNL1       -0.2073
     17 C         141.2214  141.5928  170.2696 C.ar    1  UNL1        0.1163
     18 S         142.2932  142.4490  170.8763 S.2     1  UNL1       -0.0673
     19 C         143.3664  142.6469  169.8472 C.ar    1  UNL1        0.0370
     20 C         142.9579  141.9129  168.6045 C.ar    1  UNL1        0.0118
     21 C         141.6322  141.2614  168.8655 C.ar    1  UNL1        0.0561
     22 H         137.1597  139.1397  169.9355 H       1  UNL1        0.1452
     23 H         137.4717  139.9165  171.4211 H       1  UNL1        0.1452
     24 C         143.0351  138.8500  157.0253 C.ar    1  UNL1        0.1385
     25 C         141.9749  138.0377  157.7081 C.ar    1  UNL1        0.0382
     26 C         141.5641  138.3690  159.1121 C.ar    1  UNL1        0.0175
     27 C         142.2135  139.5127  159.8335 C.ar    1  UNL1        0.0478
     28 C         143.2737  140.3251  159.1507 C.ar    1  UNL1       -0.0053
     29 C         143.9231  141.4688  159.8719 C.3     1  UNL1        0.0324
     30 C         143.6845  139.9937  157.7466 C.ar    1  UNL1        0.0339
     31 C         144.2011  137.2536  155.3395 C.3     1  UNL1        0.2525
     32 O         143.4459  138.5186  155.6212 O.3     1  UNL1       -0.4714
@<TRIPOS>BOND
     1    31    32    1
     2    32    24    1
     3    24    25   ar
     4    25    26   ar
     5    26    27   ar
     6    27     1    1
     7     1     2   am
     8     2     3    2
     9     2     4   am
    10     4     5    1
    11     5     6    1
    12     6     7    1
    13     7    12    1
    14    12    13   ar
    15    13    14   ar
    16    14    15    1
    17    14    16   ar
    18    16    17   ar
    19    17    18   ar
    20    18    19   ar
    21    19    20   ar
    22    20    21   ar
    23     7     8    1
    24     8     9    1
    25     8    10    1
    26    27    28   ar
    27    28    29    1
    28    28    30   ar
    29    30    24   ar
    30    10     4    1
    31    21    12   ar
    32    21    17   ar
    33     1    11    1
    34    15    22    1
    35    15    23    1
@<TRIPOS>MOLECULE
*****
 32 35 0 0 0
SMALL
GASTEIGER

@<TRIPOS>ATOM
      1 N         139.6092  143.8359  159.6244 N.am    1  UNL1       -0.2684
      2 C         140.3874  142.6620  160.1405 C.2     1  UNL1        0.3078
      3 O         141.4554  142.0385  159.2915 O.2     1  UNL1       -0.2522
      4 N         140.0977  142.1116  161.5054 N.am    1  UNL1       -0.2605
      5 C         140.8760  140.9377  162.0215 C.3     1  UNL1        0.1164
      6 C         140.5863  140.3873  163.3863 C.3     1  UNL1        0.1137
      7 N         139.5183  141.0108  164.2354 N.pl3   1  UNL1       -0.2913
      8 C         138.7401  142.1847  163.7194 C.3     1  UNL1        0.0941
      9 C         137.6721  142.8082  164.5683 C.3     1  UNL1        0.0233
     10 C         139.0298  142.7351  162.3544 C.3     1  UNL1        0.1147
     11 H         138.9082  144.2452  160.1816 H       1  UNL1        0.1564
     12 C         139.2286  140.4604  165.6003 C.ar    1  UNL1        0.1365
     13 N         138.2911  139.3001  165.7577 N.ar    1  UNL1       -0.1990
     14 C         138.0015  138.7497  167.1225 C.ar    1  UNL1        0.2153
     15 N         137.0639  137.5893  167.2799 N.pl3   1  UNL1       -0.3274
     16 N         138.6493  139.3595  168.3303 N.ar    1  UNL1       -0.2073
     17 C         139.5868  140.5198  168.1729 C.ar    1  UNL1        0.1163
     18 S         140.3677  141.3217  169.1715 S.2     1  UNL1       -0.0673
     19 C         141.1400  142.3678  168.4236 C.ar    1  UNL1        0.0370
     20 C         140.8364  142.2124  166.9629 C.ar    1  UNL1        0.0118
     21 C         139.8764  141.0703  166.8080 C.ar    1  UNL1        0.0561
     22 H         136.6387  137.1890  166.4873 H       1  UNL1        0.1452
     23 H         136.8738  137.2280  168.1757 H       1  UNL1        0.1452
     24 C         140.4782  145.4871  155.5296 C.ar    1  UNL1        0.1385
     25 C         141.1704  146.0588  156.7312 C.ar    1  UNL1        0.0382
     26 C         140.8808  145.5085  158.0962 C.ar    1  UNL1        0.0175
     27 C         139.8989  144.3863  158.2595 C.ar    1  UNL1        0.0478
     28 C         139.2066  143.8145  157.0578 C.ar    1  UNL1       -0.0053
     29 C         138.2247  142.6924  157.2211 C.3     1  UNL1        0.0324
     30 C         139.4963  144.3650  155.6928 C.ar    1  UNL1        0.0339
     31 C         140.4450  147.4679  153.8486 C.3     1  UNL1        0.2525
     32 O         140.7680  146.0375  154.1646 O.3     1  UNL1       -0.4714
@<TRIPOS>BOND
     1    31    32    1
     2    32    24    1
     3    24    25   ar
     4    25    26   ar
     5    26    27   ar
     6    27     1    1
     7     1     2   am
     8     2     3    2
     9     2     4   am
    10     4     5    1
    11     5     6    1
    12     6     7    1
    13     7    12    1
    14    12    13   ar
    15    13    14   ar
    16    14    15    1
    17    14    16   ar
    18    16    17   ar
    19    17    18   ar
    20    18    19   ar
    21    19    20   ar
    22    20    21   ar
    23     7     8    1
    24     8     9    1
    25     8    10    1
    26    27    28   ar
    27    28    29    1
    28    28    30   ar
    29    30    24   ar
    30    10     4    1
    31    21    12   ar
    32    21    17   ar
    33     1    11    1
    34    15    22    1
    35    15    23    1
@<TRIPOS>MOLECULE
*****
 32 35 0 0 0
SMALL
GASTEIGER

@<TRIPOS>ATOM
      1 N         141.7231  143.1337  161.4136 N.am    1  UNL1       -0.2684
      2 C         142.7430  143.4371  162.4709 C.2     1  UNL1        0.3078
      3 O         143.9073  144.3289  162.1559 O.2     1  UNL1       -0.2522
      4 N         142.5986  142.8488  163.8431 N.am    1  UNL1       -0.2605
      5 C         143.6185  143.1522  164.9004 C.3     1  UNL1        0.1164
      6 C         143.4741  142.5639  166.2726 C.3     1  UNL1        0.1137
      7 N         142.3097  141.6721  166.5875 N.pl3   1  UNL1       -0.2913
      8 C         141.2899  141.3686  165.5303 C.3     1  UNL1        0.0941
      9 C         140.1256  140.4769  165.8453 C.3     1  UNL1        0.0233
     10 C         141.4343  141.9570  164.1580 C.3     1  UNL1        0.1147
     11 H         140.9590  142.5484  161.6203 H       1  UNL1        0.1564
     12 C         142.1653  141.0837  167.9598 C.ar    1  UNL1        0.1365
     13 N         142.8036  139.7650  168.2814 N.ar    1  UNL1       -0.1990
     14 C         142.6592  139.1767  169.6535 C.ar    1  UNL1        0.2153
     15 N         143.2975  137.8578  169.9751 N.pl3   1  UNL1       -0.3274
     16 N         141.8765  139.9071  170.7043 N.ar    1  UNL1       -0.2073
     17 C         141.2383  141.2259  170.3827 C.ar    1  UNL1        0.1163
     18 S         140.4134  142.1692  171.2071 S.2     1  UNL1       -0.0673
     19 C         140.0480  143.3406  170.3443 C.ar    1  UNL1        0.0370
     20 C         140.6470  143.1212  168.9867 C.ar    1  UNL1        0.0118
     21 C         141.3827  141.8142  169.0104 C.ar    1  UNL1        0.0561
     22 H         143.8112  137.3784  169.2855 H       1  UNL1        0.1452
     23 H         143.2028  137.4716  170.8757 H       1  UNL1        0.1452
     24 C         142.1564  144.8987  157.2969 C.ar    1  UNL1        0.1385
     25 C         141.3031  145.5857  158.3216 C.ar    1  UNL1        0.0382
     26 C         141.1587  144.9974  159.6938 C.ar    1  UNL1        0.0175
     27 C         141.8676  143.7220  160.0414 C.ar    1  UNL1        0.0478
     28 C         142.7209  143.0349  159.0168 C.ar    1  UNL1       -0.0053
     29 C         143.4298  141.7595  159.3644 C.3     1  UNL1        0.0324
     30 C         142.8653  143.6233  157.6445 C.ar    1  UNL1        0.0339
     31 C         142.8231  144.6448  154.7987 C.3     1  UNL1        0.2525
     32 O         142.3008  145.4870  155.9247 O.3     1  UNL1       -0.4714
@<TRIPOS>BOND
     1    31    32    1
     2    32    24    1
     3    24    25   ar
     4    25    26   ar
     5    26    27   ar
     6    27     1    1
     7     1     2   am
     8     2     3    2
     9     2     4   am
    10     4     5    1
    11     5     6    1
    12     6     7    1
    13     7    12    1
    14    12    13   ar
    15    13    14   ar
    16    14    15    1
    17    14    16   ar
    18    16    17   ar
    19    17    18   ar
    20    18    19   ar
    21    19    20   ar
    22    20    21   ar
    23     7     8    1
    24     8     9    1
    25     8    10    1
    26    27    28   ar
    27    28    29    1
    28    28    30   ar
    29    30    24   ar
    30    10     4    1
    31    21    12   ar
    32    21    17   ar
    33     1    11    1
    34    15    22    1
    35    15    23    1
@<TRIPOS>MOLECULE
*****
 32 35 0 0 0
SMALL
GASTEIGER

@<TRIPOS>ATOM
      1 N         139.8784  140.7258  161.1454 N.am    1  UNL1       -0.2684
      2 C         139.0880  140.2194  162.3154 C.2     1  UNL1        0.3078
      3 O         137.9234  139.3006  162.0925 O.2     1  UNL1       -0.2522
      4 N         139.4621  140.6317  163.7082 N.am    1  UNL1       -0.2605
      5 C         138.6717  140.1252  164.8782 C.3     1  UNL1        0.1164
      6 C         139.0459  140.5375  166.2710 C.3     1  UNL1        0.1137
      7 N         140.2105  141.4563  166.4939 N.pl3   1  UNL1       -0.2913
      8 C         141.0009  141.9627  165.3240 C.3     1  UNL1        0.0941
      9 C         142.1655  142.8815  165.5469 C.3     1  UNL1        0.0233
     10 C         140.6267  141.5504  163.9311 C.3     1  UNL1        0.1147
     11 H         140.6428  141.3288  161.2917 H       1  UNL1        0.1564
     12 C         140.5846  141.8686  167.8868 C.ar    1  UNL1        0.1365
     13 N         140.1397  143.1979  168.4205 N.ar    1  UNL1       -0.1990
     14 C         140.5138  143.6101  169.8133 C.ar    1  UNL1        0.2153
     15 N         140.0687  144.9395  170.3470 N.pl3   1  UNL1       -0.3274
     16 N         141.3329  142.6931  170.6725 N.ar    1  UNL1       -0.2073
     17 C         141.7779  141.3638  170.1387 C.ar    1  UNL1        0.1163
     18 S         142.5876  140.2578  170.7478 S.2     1  UNL1       -0.0673
     19 C         142.7140  139.1619  169.7314 C.ar    1  UNL1        0.0370
     20 C         141.9823  139.5907  168.4941 C.ar    1  UNL1        0.0118
     21 C         141.4038  140.9515  168.7459 C.ar    1  UNL1        0.0561
     22 H         139.5311  145.5414  169.7832 H       1  UNL1        0.1452
     23 H         140.3143  145.2101  171.2612 H       1  UNL1        0.1452
     24 C         138.7560  139.4889  156.9669 C.ar    1  UNL1        0.1385
     25 C         138.0720  140.6574  157.6125 C.ar    1  UNL1        0.0382
     26 C         138.4460  141.0698  159.0053 C.ar    1  UNL1        0.0175
     27 C         139.5043  140.3136  159.7526 C.ar    1  UNL1        0.0478
     28 C         140.1883  139.1450  159.1070 C.ar    1  UNL1       -0.0053
     29 C         141.2465  138.3888  159.8543 C.3     1  UNL1        0.0324
     30 C         139.8141  138.7327  157.7142 C.ar    1  UNL1        0.0339
     31 C         138.6745  137.6840  155.0999 C.3     1  UNL1        0.2525
     32 O         138.3818  139.0767  155.5740 O.3     1  UNL1       -0.4714
@<TRIPOS>BOND
     1    31    32    1
     2    32    24    1
     3    24    25   ar
     4    25    26   ar
     5    26    27   ar
     6    27     1    1
     7     1     2   am
     8     2     3    2
     9     2     4   am
    10     4     5    1
    11     5     6    1
    12     6     7    1
    13     7    12    1
    14    12    13   ar
    15    13    14   ar
    16    14    15    1
    17    14    16   ar
    18    16    17   ar
    19    17    18   ar
    20    18    19   ar
    21    19    20   ar
    22    20    21   ar
    23     7     8    1
    24     8     9    1
    25     8    10    1
    26    27    28   ar
    27    28    29    1
    28    28    30   ar
    29    30    24   ar
    30    10     4    1
    31    21    12   ar
    32    21    17   ar
    33     1    11    1
    34    15    22    1
    35    15    23    1
@<TRIPOS>MOLECULE
*****
 32 35 0 0 0
SMALL
GASTEIGER

@<TRIPOS>ATOM
      1 N         142.5440  140.2589  159.7363 N.am    1  UNL1       -0.2684
      2 C         142.9601  139.3639  160.8659 C.2     1  UNL1        0.3078
      3 O         144.1655  138.4831  160.7198 O.2     1  UNL1       -0.2522
      4 N         142.1710  139.3497  162.1413 N.am    1  UNL1       -0.2605
      5 C         142.5872  138.4547  163.2709 C.3     1  UNL1        0.1164
      6 C         141.7981  138.4405  164.5464 C.3     1  UNL1        0.1137
      7 N         140.5927  139.3213  164.6925 N.pl3   1  UNL1       -0.2913
      8 C         140.1765  140.2163  163.5630 C.3     1  UNL1        0.0941
      9 C         138.9711  141.0970  163.7091 C.3     1  UNL1        0.0233
     10 C         140.9657  140.2304  162.2874 C.3     1  UNL1        0.1147
     11 H         141.7529  140.8370  159.8321 H       1  UNL1        0.1564
     12 C         139.8035  139.3071  165.9680 C.ar    1  UNL1        0.1365
     13 N         138.6301  138.3841  166.1137 N.ar    1  UNL1       -0.1990
     14 C         137.8410  138.3699  167.3892 C.ar    1  UNL1        0.2153
     15 N         136.6675  137.4469  167.5349 N.pl3   1  UNL1       -0.3274
     16 N         138.2252  139.2786  168.5192 N.ar    1  UNL1       -0.2073
     17 C         139.3987  140.2015  168.3734 C.ar    1  UNL1        0.1163
     18 S         140.0101  141.2028  169.3080 S.2     1  UNL1       -0.0673
     19 C         141.1772  141.8359  168.6101 C.ar    1  UNL1        0.0370
     20 C         141.2870  141.2259  167.2441 C.ar    1  UNL1        0.0118
     21 C         140.1878  140.2158  167.0979 C.ar    1  UNL1        0.0561
     22 H         136.4153  136.8505  166.7934 H       1  UNL1        0.1452
     23 H         136.1495  137.4376  168.3721 H       1  UNL1        0.1452
     24 C         144.9114  140.3015  155.9097 C.ar    1  UNL1        0.1385
     25 C         143.8470  139.2662  156.1216 C.ar    1  UNL1        0.0382
     26 C         143.0578  139.2519  157.3971 C.ar    1  UNL1        0.0175
     27 C         143.3331  140.2731  158.4608 C.ar    1  UNL1        0.0478
     28 C         144.3976  141.3085  158.2489 C.ar    1  UNL1       -0.0053
     29 C         144.6729  142.3297  159.3126 C.3     1  UNL1        0.0324
     30 C         145.1868  141.3227  156.9733 C.ar    1  UNL1        0.0339
     31 C         144.9906  140.3517  153.3133 C.3     1  UNL1        0.2525
     32 O         145.7006  140.3157  154.6341 O.3     1  UNL1       -0.4714
@<TRIPOS>BOND
     1    31    32    1
     2    32    24    1
     3    24    25   ar
     4    25    26   ar
     5    26    27   ar
     6    27     1    1
     7     1     2   am
     8     2     3    2
     9     2     4   am
    10     4     5    1
    11     5     6    1
    12     6     7    1
    13     7    12    1
    14    12    13   ar
    15    13    14   ar
    16    14    15    1
    17    14    16   ar
    18    16    17   ar
    19    17    18   ar
    20    18    19   ar
    21    19    20   ar
    22    20    21   ar
    23     7     8    1
    24     8     9    1
    25     8    10    1
    26    27    28   ar
    27    28    29    1
    28    28    30   ar
    29    30    24   ar
    30    10     4    1
    31    21    12   ar
    32    21    17   ar
    33     1    11    1
    34    15    22    1
    35    15    23    1
@<TRIPOS>MOLECULE
*****
 32 35 0 0 0
SMALL
GASTEIGER

@<TRIPOS>ATOM
      1 N         141.7933  139.9366  161.0307 N.am    1  UNL1       -0.2684
      2 C         142.3828  139.1046  162.1310 C.2     1  UNL1        0.3078
      3 O         142.9833  137.7659  161.8195 O.2     1  UNL1       -0.2522
      4 N         142.3717  139.6114  163.5427 N.am    1  UNL1       -0.2605
      5 C         142.9612  138.7795  164.6430 C.3     1  UNL1        0.1164
      6 C         142.9501  139.2863  166.0546 C.3     1  UNL1        0.1137
      7 N         142.3496  140.6252  166.3662 N.pl3   1  UNL1       -0.2913
      8 C         141.7602  141.4571  165.2660 C.3     1  UNL1        0.0941
      9 C         141.1597  142.7959  165.5776 C.3     1  UNL1        0.0233
     10 C         141.7713  140.9502  163.8542 C.3     1  UNL1        0.1147
     11 H         141.3992  140.8153  161.2352 H       1  UNL1        0.1564
     12 C         142.3386  141.1320  167.7779 C.ar    1  UNL1        0.1365
     13 N         143.5264  141.8713  168.3187 N.ar    1  UNL1       -0.1990
     14 C         143.5154  142.3781  169.7304 C.ar    1  UNL1        0.2153
     15 N         144.7033  143.1174  170.2711 N.pl3   1  UNL1       -0.3274
     16 N         142.3165  142.1456  170.6014 N.ar    1  UNL1       -0.2073
     17 C         141.1286  141.4063  170.0606 C.ar    1  UNL1        0.1163
     18 S         139.8147  141.0294  170.6782 S.2     1  UNL1       -0.0673
     19 C         139.0137  140.2896  169.6482 C.ar    1  UNL1        0.0370
     20 C         139.8325  140.2093  168.3940 C.ar    1  UNL1        0.0118
     21 C         141.1397  140.8995  168.6489 C.ar    1  UNL1        0.0561
     22 H         145.4902  143.2700  169.6995 H       1  UNL1        0.1452
     23 H         144.6961  143.4501  171.1977 H       1  UNL1        0.1452
     24 C         141.8265  138.4160  156.7956 C.ar    1  UNL1        0.1385
     25 C         143.0188  139.1455  157.3400 C.ar    1  UNL1        0.0382
     26 C         143.0078  139.6524  158.7516 C.ar    1  UNL1        0.0175
     27 C         141.8044  139.4298  159.6191 C.ar    1  UNL1        0.0478
     28 C         140.6121  138.7002  159.0747 C.ar    1  UNL1       -0.0053
     29 C         139.4087  138.4776  159.9421 C.3     1  UNL1        0.0324
     30 C         140.6232  138.1934  157.6630 C.ar    1  UNL1        0.0339
     31 C         143.0516  138.1074  154.5254 C.3     1  UNL1        0.2525
     32 O         141.8376  137.9092  155.3839 O.3     1  UNL1       -0.4714
@<TRIPOS>BOND
     1    31    32    1
     2    32    24    1
     3    24    25   ar
     4    25    26   ar
     5    26    27   ar
     6    27     1    1
     7     1     2   am
     8     2     3    2
     9     2     4   am
    10     4     5    1
    11     5     6    1
    12     6     7    1
    13     7    12    1
    14    12    13   ar
    15    13    14   ar
    16    14    15    1
    17    14    16   ar
    18    16    17   ar
    19    17    18   ar
    20    18    19   ar
    21    19    20   ar
    22    20    21   ar
    23     7     8    1
    24     8     9    1
    25     8    10    1
    26    27    28   ar
    27    28    29    1
    28    28    30   ar
    29    30    24   ar
    30    10     4    1
    31    21    12   ar
    32    21    17   ar
    33     1    11    1
    34    15    22    1
    35    15    23    1
@<TRIPOS>MOLECULE
*****
 32 35 0 0 0
SMALL
GASTEIGER

@<TRIPOS>ATOM
      1 N         139.9262  140.4548  164.8507 N.am    1  UNL1       -0.2684
      2 C         140.7807  139.3979  164.2160 C.2     1  UNL1        0.3078
      3 O         141.6380  138.5129  165.0716 O.2     1  UNL1       -0.2522
      4 N         140.7780  139.2259  162.7260 N.am    1  UNL1       -0.2605
      5 C         141.6326  138.1690  162.0914 C.3     1  UNL1        0.1164
      6 C         141.6299  137.9971  160.6014 C.3     1  UNL1        0.1137
      7 N         140.7726  138.8821  159.7458 N.pl3   1  UNL1       -0.2913
      8 C         139.9181  139.9390  160.3803 C.3     1  UNL1        0.0941
      9 C         139.0609  140.8240  159.5247 C.3     1  UNL1        0.0233
     10 C         139.9208  140.1109  161.8705 C.3     1  UNL1        0.1147
     11 H         139.3635  141.0357  164.2892 H       1  UNL1        0.1564
     12 C         140.7699  138.7101  158.2556 C.ar    1  UNL1        0.1365
     13 N         139.6176  138.0261  157.5817 N.ar    1  UNL1       -0.1990
     14 C         139.6149  137.8541  156.0917 C.ar    1  UNL1        0.2153
     15 N         138.4625  137.1700  155.4177 N.pl3   1  UNL1       -0.3274
     16 N         140.7646  138.3662  155.2754 N.ar    1  UNL1       -0.2073
     17 C         141.9169  139.0502  155.9494 C.ar    1  UNL1        0.1163
     18 S         143.1800  139.6538  155.4108 S.2     1  UNL1       -0.0673
     19 C         143.9634  140.1989  156.5681 C.ar    1  UNL1        0.0370
     20 C         143.1844  139.9321  157.8219 C.ar    1  UNL1        0.0118
     21 C         141.9196  139.2222  157.4395 C.ar    1  UNL1        0.0561
     22 H         137.7080  136.8339  155.9533 H       1  UNL1        0.1452
     23 H         138.4608  137.0571  154.4397 H       1  UNL1        0.1452
     24 C         139.9343  140.9706  169.3210 C.ar    1  UNL1        0.1385
     25 C         140.8362  141.8119  168.4673 C.ar    1  UNL1        0.0382
     26 C         140.8336  141.6400  166.9772 C.ar    1  UNL1        0.0175
     27 C         139.9289  140.6268  166.3407 C.ar    1  UNL1        0.0478
     28 C         139.0269  139.7855  167.1945 C.ar    1  UNL1       -0.0053
     29 C         138.1222  138.7723  166.5580 C.3     1  UNL1        0.0324
     30 C         139.0296  139.9575  168.6846 C.ar    1  UNL1        0.0339
     31 C         141.0619  141.8761  171.4794 C.3     1  UNL1        0.2525
     32 O         139.9370  141.1426  170.8111 O.3     1  UNL1       -0.4714
@<TRIPOS>BOND
     1    31    32    1
     2    32    24    1
     3    24    25   ar
     4    25    26   ar
     5    26    27   ar
     6    27     1    1
     7     1     2   am
     8     2     3    2
     9     2     4   am
    10     4     5    1
    11     5     6    1
    12     6     7    1
    13     7    12    1
    14    12    13   ar
    15    13    14   ar
    16    14    15    1
    17    14    16   ar
    18    16    17   ar
    19    17    18   ar
    20    18    19   ar
    21    19    20   ar
    22    20    21   ar
    23     7     8    1
    24     8     9    1
    25     8    10    1
    26    27    28   ar
    27    28    29    1
    28    28    30   ar
    29    30    24   ar
    30    10     4    1
    31    21    12   ar
    32    21    17   ar
    33     1    11    1
    34    15    22    1
    35    15    23    1
@<TRIPOS>MOLECULE
*****
 32 35 0 0 0
SMALL
GASTEIGER

@<TRIPOS>ATOM
      1 N         140.1340  139.6123  163.5289 N.am    1  UNL1       -0.2684
      2 C         141.1365  138.6046  163.0498 C.2     1  UNL1        0.3078
      3 O         141.6960  137.5913  164.0037 O.2     1  UNL1       -0.2522
      4 N         141.5795  138.6103  161.6168 N.am    1  UNL1       -0.2605
      5 C         142.5821  137.6026  161.1376 C.3     1  UNL1        0.1164
      6 C         143.0251  137.6083  159.7046 C.3     1  UNL1        0.1137
      7 N         142.4656  138.6217  158.7506 N.pl3   1  UNL1       -0.2913
      8 C         141.4631  139.6294  159.2297 C.3     1  UNL1        0.0941
      9 C         140.9036  140.6428  158.2757 C.3     1  UNL1        0.0233
     10 C         141.0201  139.6237  160.6628 C.3     1  UNL1        0.1147
     11 H         139.7668  140.2775  162.9028 H       1  UNL1        0.1564
     12 C         142.9086  138.6274  157.3175 C.ar    1  UNL1        0.1365
     13 N         144.0775  139.4682  156.8972 N.ar    1  UNL1       -0.1990
     14 C         144.5206  139.4739  155.4642 C.ar    1  UNL1        0.2153
     15 N         145.6895  140.3148  155.0439 N.pl3   1  UNL1       -0.3274
     16 N         143.7947  138.6388  154.4514 N.ar    1  UNL1       -0.2073
     17 C         142.6258  137.7980  154.8717 C.ar    1  UNL1        0.1163
     18 S         141.7224  136.8795  154.1035 S.2     1  UNL1       -0.0673
     19 C         140.7209  136.3061  155.0618 C.ar    1  UNL1        0.0370
     20 C         141.0055  136.8703  156.4223 C.ar    1  UNL1        0.0118
     21 C         142.1828  137.7923  156.3048 C.ar    1  UNL1        0.0561
     22 H         146.1659  140.8629  155.7086 H       1  UNL1        0.1452
     23 H         145.9803  140.3185  154.1033 H       1  UNL1        0.1452
     24 C         138.8049  139.5953  167.8281 C.ar    1  UNL1        0.1385
     25 C         138.0442  138.8053  166.8048 C.ar    1  UNL1        0.0382
     26 C         138.4872  138.8110  165.3717 C.ar    1  UNL1        0.0175
     27 C         139.6910  139.6066  164.9619 C.ar    1  UNL1        0.0478
     28 C         140.4518  140.3966  165.9853 C.ar    1  UNL1       -0.0053
     29 C         141.6555  141.1923  165.5756 C.3     1  UNL1        0.0324
     30 C         140.0087  140.3909  167.4184 C.ar    1  UNL1        0.0339
     31 C         139.1050  140.4028  170.2792 C.3     1  UNL1        0.2525
     32 O         138.3619  139.5895  169.2612 O.3     1  UNL1       -0.4714
@<TRIPOS>BOND
     1    31    32    1
     2    32    24    1
     3    24    25   ar
     4    25    26   ar
     5    26    27   ar
     6    27     1    1
     7     1     2   am
     8     2     3    2
     9     2     4   am
    10     4     5    1
    11     5     6    1
    12     6     7    1
    13     7    12    1
    14    12    13   ar
    15    13    14   ar
    16    14    15    1
    17    14    16   ar
    18    16    17   ar
    19    17    18   ar
    20    18    19   ar
    21    19    20   ar
    22    20    21   ar
    23     7     8    1
    24     8     9    1
    25     8    10    1
    26    27    28   ar
    27    28    29    1
    28    28    30   ar
    29    30    24   ar
    30    10     4    1
    31    21    12   ar
    32    21    17   ar
    33     1    11    1
    34    15    22    1
    35    15    23    1
@<TRIPOS>MOLECULE
*****
 32 35 0 0 0
SMALL
GASTEIGER

@<TRIPOS>ATOM
      1 N         141.1954  140.2804  164.6521 N.am    1  UNL1       -0.2684
      2 C         141.9733  139.1506  164.0450 C.2     1  UNL1        0.3078
      3 O         142.4352  138.0112  164.9043 O.2     1  UNL1       -0.2522
      4 N         142.2891  139.1601  162.5787 N.am    1  UNL1       -0.2605
      5 C         143.0670  138.0303  161.9716 C.3     1  UNL1        0.1164
      6 C         143.3828  138.0398  160.5054 C.3     1  UNL1        0.1137
      7 N         142.9209  139.1792  159.6460 N.pl3   1  UNL1       -0.2913
      8 C         142.1431  140.3091  160.2530 C.3     1  UNL1        0.0941
      9 C         141.6811  141.4484  159.3937 C.3     1  UNL1        0.0233
     10 C         141.8272  140.2995  161.7194 C.3     1  UNL1        0.1147
     11 H         140.8923  141.0283  164.0881 H       1  UNL1        0.1564
     12 C         143.2367  139.1888  158.1797 C.ar    1  UNL1        0.1365
     13 N         144.4704  139.8823  157.6827 N.ar    1  UNL1       -0.1990
     14 C         144.7863  139.8918  156.2165 C.ar    1  UNL1        0.2153
     15 N         146.0201  140.5854  155.7195 N.pl3   1  UNL1       -0.3274
     16 N         143.8685  139.2078  155.2470 N.ar    1  UNL1       -0.2073
     17 C         142.6348  138.5143  155.7439 C.ar    1  UNL1        0.1163
     18 S         141.5511  137.7608  155.0314 S.2     1  UNL1       -0.0673
     19 C         140.5654  137.2856  156.0573 C.ar    1  UNL1        0.0370
     20 C         141.0399  137.7454  157.4040 C.ar    1  UNL1        0.0118
     21 C         142.3189  138.5047  157.2103 C.ar    1  UNL1        0.0561
     22 H         146.6225  141.0344  156.3558 H       1  UNL1        0.1452
     23 H         146.2274  140.5917  154.7571 H       1  UNL1        0.1452
     24 C         140.2478  140.2518  169.0510 C.ar    1  UNL1        0.1385
     25 C         141.6215  140.6302  168.5821 C.ar    1  UNL1        0.0382
     26 C         141.9374  140.6398  167.1159 C.ar    1  UNL1        0.0175
     27 C         140.8796  140.2709  166.1183 C.ar    1  UNL1        0.0478
     28 C         139.5059  139.8925  166.5872 C.ar    1  UNL1       -0.0053
     29 C         138.4480  139.5236  165.5897 C.3     1  UNL1        0.0324
     30 C         139.1900  139.8829  168.0536 C.ar    1  UNL1        0.0339
     31 C         140.7960  141.0072  171.4757 C.3     1  UNL1        0.2525
     32 O         139.9320  140.2423  170.5174 O.3     1  UNL1       -0.4714
@<TRIPOS>BOND
     1    31    32    1
     2    32    24    1
     3    24    25   ar
     4    25    26   ar
     5    26    27   ar
     6    27     1    1
     7     1     2   am
     8     2     3    2
     9     2     4   am
    10     4     5    1
    11     5     6    1
    12     6     7    1
    13     7    12    1
    14    12    13   ar
    15    13    14   ar
    16    14    15    1
    17    14    16   ar
    18    16    17   ar
    19    17    18   ar
    20    18    19   ar
    21    19    20   ar
    22    20    21   ar
    23     7     8    1
    24     8     9    1
    25     8    10    1
    26    27    28   ar
    27    28    29    1
    28    28    30   ar
    29    30    24   ar
    30    10     4    1
    31    21    12   ar
    32    21    17   ar
    33     1    11    1
    34    15    22    1
    35    15    23    1
