@<TRIPOS>MOLECULE
*****
 33 36 0 0 0
SMALL
GASTEIGER

@<TRIPOS>ATOM
      1 C         140.1751  139.7632  164.2916 C.2     1  UNL1        0.1397
      2 C         139.9681  139.8750  162.8102 C.2     1  UNL1        0.1355
      3 N         139.9298  141.2253  162.1581 N.pl3   1  UNL1       -0.1998
      4 C         140.0985  142.4637  162.9873 C.2     1  UNL1        0.3442
      5 N         140.3055  142.3519  164.4688 N.2     1  UNL1       -0.0580
      6 C         140.3437  141.0016  165.1209 C.3     1  UNL1        0.2692
      7 H         139.7939  141.2986  161.1858 H       1  UNL1        0.2983
      8 C         140.5507  140.8898  166.6024 C.ar    1  UNL1        0.0371
      9 C         139.4649  140.3273  167.4710 C.ar    1  UNL1        0.0030
     10 C         139.6718  140.2155  168.9524 C.ar    1  UNL1        0.0295
     11 C         140.9647  140.6663  169.5653 C.ar    1  UNL1        0.1406
     12 F         141.1716  140.5545  171.0467 F       1  UNL1       -0.2042
     13 C         142.0505  141.2288  168.6967 C.ar    1  UNL1        0.0362
     14 C         141.8435  141.3406  167.2152 C.ar    1  UNL1        0.0372
     15 BR        142.9293  141.9031  166.3465 Br      1  UNL1       -0.0491
     16 C         140.0602  143.8140  162.3352 C.ar    1  UNL1        0.1931
     17 N         139.4525  145.0565  162.9156 N.ar    1  UNL1       -0.2297
     18 C         139.6396  146.1693  161.9273 C.ar    1  UNL1        0.1067
     19 C         140.3630  145.6145  160.7360 C.ar    1  UNL1        0.0577
     20 S         140.6229  144.1588  160.9882 S.2     1  UNL1       -0.0586
     21 C         140.2133  138.4129  164.9438 C.2     1  UNL1        0.3447
     22 O         138.9654  137.8322  165.5399 O.2     1  UNL1       -0.2450
     23 O         141.4996  137.6433  164.9998 O.3     1  UNL1       -0.4455
     24 C         143.6668  138.1793  166.3287 C.3     1  UNL1        0.0513
     25 C         142.8054  138.3723  165.1159 C.3     1  UNL1        0.2089
     26 C         139.7994  138.6365  161.9809 C.3     1  UNL1        0.1406
     27 N         140.6812  138.4057  160.7897 N.3     1  UNL1       -0.2571
     28 C         142.1012  137.9625  160.9824 C.3     1  UNL1        0.1378
     29 C         142.9831  137.7317  159.7910 C.3     1  UNL1        0.2729
     30 S         142.4449  137.9440  158.4071 S.O     1  UNL1        0.0333
     31 O         143.3267  137.7132  157.2159 O.co2   1  UNL1       -0.6812
     32 C         141.0249  138.3872  158.2145 C.3     1  UNL1        0.2729
     33 C         140.1430  138.6180  159.4057 C.3     1  UNL1        0.1378
@<TRIPOS>UNITY_ATOM_ATTR
30 1
charge 1
31 1
charge -1
@<TRIPOS>BOND
     1    24    25    1
     2    25    23    1
     3    23    21    1
     4    21    22    2
     5    21     1    1
     6     1     2    2
     7     2    26    1
     8    26    27    1
     9    27    28    1
    10    28    29    1
    11    29    30    1
    12    30    31    2
    13    30    32    1
    14    32    33    1
    15     2     3    1
    16     3     4    1
    17     4    16    1
    18    16    17   ar
    19    17    18   ar
    20    18    19   ar
    21    19    20   ar
    22     4     5    2
    23     5     6    1
    24     6     8    1
    25     8     9   ar
    26     9    10   ar
    27    10    11   ar
    28    11    12    1
    29    11    13   ar
    30    13    14   ar
    31    14    15    1
    32     6     1    1
    33    14     8   ar
    34    33    27    1
    35    20    16   ar
    36     3     7    1
@<TRIPOS>MOLECULE
*****
 33 36 0 0 0
SMALL
GASTEIGER

@<TRIPOS>ATOM
      1 C         142.1997  140.1878  164.1625 C.2     1  UNL1        0.1397
      2 C         142.6424  140.4987  162.7635 C.2     1  UNL1        0.1355
      3 N         142.1683  141.7511  162.0876 N.pl3   1  UNL1       -0.1998
      4 C         141.2515  142.6926  162.8108 C.2     1  UNL1        0.3442
      5 N         140.8089  142.3817  164.2098 N.2     1  UNL1       -0.0580
      6 C         141.2830  141.1293  164.8857 C.3     1  UNL1        0.2692
      7 H         142.4589  141.9551  161.1694 H       1  UNL1        0.2983
      8 C         140.8402  140.8185  166.2848 C.ar    1  UNL1        0.0371
      9 C         139.5827  140.0344  166.5167 C.ar    1  UNL1        0.0030
     10 C         139.1399  139.7235  167.9157 C.ar    1  UNL1        0.0295
     11 C         139.9548  140.1967  169.0829 C.ar    1  UNL1        0.1406
     12 F         139.5120  139.8859  170.4819 F       1  UNL1       -0.2042
     13 C         141.2123  140.9808  168.8510 C.ar    1  UNL1        0.0362
     14 C         141.6551  141.2916  167.4519 C.ar    1  UNL1        0.0372
     15 BR        142.9126  142.0757  167.2199 Br      1  UNL1       -0.0491
     16 C         140.7774  143.9450  162.1350 C.ar    1  UNL1        0.1931
     17 N         140.8318  144.2271  160.6627 N.ar    1  UNL1       -0.2297
     18 C         140.2537  145.5916  160.4306 C.ar    1  UNL1        0.1067
     19 C         139.8421  146.1529  161.7593 C.ar    1  UNL1        0.0577
     20 S         140.1658  145.1352  162.8127 S.2     1  UNL1       -0.0586
     21 C         142.6738  138.9354  164.8383 C.2     1  UNL1        0.3447
     22 O         144.0388  138.8885  165.4585 O.2     1  UNL1       -0.2450
     23 O         141.7830  137.7300  164.8940 O.3     1  UNL1       -0.4455
     24 C         139.5975  137.6633  163.4907 C.3     1  UNL1        0.0513
     25 C         141.0394  137.2896  163.6680 C.3     1  UNL1        0.2089
     26 C         143.5592  139.5572  162.0402 C.3     1  UNL1        0.1406
     27 N         143.3569  139.2881  160.5785 N.3     1  UNL1       -0.2571
     28 C         143.7637  140.3149  159.5635 C.3     1  UNL1        0.1378
     29 C         143.5613  140.0458  158.1017 C.3     1  UNL1        0.2729
     30 S         142.9522  138.7499  157.6550 S.O     1  UNL1        0.0333
     31 O         142.7498  138.4809  156.1933 O.co2   1  UNL1       -0.6812
     32 C         142.5454  137.7231  158.6700 C.3     1  UNL1        0.2729
     33 C         142.7477  137.9922  160.1317 C.3     1  UNL1        0.1378
@<TRIPOS>UNITY_ATOM_ATTR
30 1
charge 1
31 1
charge -1
@<TRIPOS>BOND
     1    24    25    1
     2    25    23    1
     3    23    21    1
     4    21    22    2
     5    21     1    1
     6     1     2    2
     7     2    26    1
     8    26    27    1
     9    27    28    1
    10    28    29    1
    11    29    30    1
    12    30    31    2
    13    30    32    1
    14    32    33    1
    15     2     3    1
    16     3     4    1
    17     4    16    1
    18    16    17   ar
    19    17    18   ar
    20    18    19   ar
    21    19    20   ar
    22     4     5    2
    23     5     6    1
    24     6     8    1
    25     8     9   ar
    26     9    10   ar
    27    10    11   ar
    28    11    12    1
    29    11    13   ar
    30    13    14   ar
    31    14    15    1
    32     6     1    1
    33    14     8   ar
    34    33    27    1
    35    20    16   ar
    36     3     7    1
@<TRIPOS>MOLECULE
*****
 33 36 0 0 0
SMALL
GASTEIGER

@<TRIPOS>ATOM
      1 C         139.0935  141.3527  160.8966 C.2     1  UNL1        0.1397
      2 C         139.1904  140.7368  159.5323 C.2     1  UNL1        0.1355
      3 N         139.3032  141.6131  158.3201 N.pl3   1  UNL1       -0.1998
      4 C         139.3190  143.1052  158.4722 C.2     1  UNL1        0.3442
      5 N         139.2220  143.7211  159.8365 N.2     1  UNL1       -0.0580
      6 C         139.1092  142.8448  161.0487 C.3     1  UNL1        0.2692
      7 H         139.3668  141.2088  157.4247 H       1  UNL1        0.2983
      8 C         139.0123  143.4608  162.4130 C.ar    1  UNL1        0.0371
      9 C         137.6719  143.6359  163.0632 C.ar    1  UNL1        0.0030
     10 C         137.5749  144.2519  164.4274 C.ar    1  UNL1        0.0295
     11 C         138.8183  144.6927  165.1415 C.ar    1  UNL1        0.1406
     12 F         138.7213  145.3086  166.5058 F       1  UNL1       -0.2042
     13 C         140.1586  144.5175  164.4913 C.ar    1  UNL1        0.0362
     14 C         140.2556  143.9015  163.1270 C.ar    1  UNL1        0.0372
     15 BR        141.5959  143.7264  162.4767 Br      1  UNL1       -0.0491
     16 C         139.4317  143.9815  157.2600 C.ar    1  UNL1        0.1931
     17 N         140.0820  145.3321  157.2058 N.ar    1  UNL1       -0.2297
     18 C         139.9661  145.8464  155.8015 C.ar    1  UNL1        0.1067
     19 C         139.2442  144.8136  154.9877 C.ar    1  UNL1        0.0577
     20 S         138.9139  143.6610  155.8892 S.2     1  UNL1       -0.0586
     21 C         138.9807  140.4764  162.1088 C.2     1  UNL1        0.3447
     22 O         137.6557  139.8819  162.4839 O.2     1  UNL1       -0.2450
     23 O         140.1931  140.1945  162.9459 O.3     1  UNL1       -0.4455
     24 C         139.4435  140.9646  165.3113 C.3     1  UNL1        0.0513
     25 C         140.0446  139.9238  164.4138 C.3     1  UNL1        0.2089
     26 C         139.1747  139.2445  159.3802 C.3     1  UNL1        0.1406
     27 N         140.3014  138.5507  158.6738 N.3     1  UNL1       -0.2571
     28 C         140.0587  137.8772  157.3557 C.3     1  UNL1        0.1378
     29 C         141.1855  137.1834  156.6492 C.3     1  UNL1        0.2729
     30 S         142.5549  137.1631  157.2609 S.O     1  UNL1        0.0333
     31 O         143.6816  136.4693  156.5544 O.co2   1  UNL1       -0.6812
     32 C         142.7976  137.8366  158.5790 C.3     1  UNL1        0.2729
     33 C         141.6709  138.5304  159.2855 C.3     1  UNL1        0.1378
@<TRIPOS>UNITY_ATOM_ATTR
30 1
charge 1
31 1
charge -1
@<TRIPOS>BOND
     1    24    25    1
     2    25    23    1
     3    23    21    1
     4    21    22    2
     5    21     1    1
     6     1     2    2
     7     2    26    1
     8    26    27    1
     9    27    28    1
    10    28    29    1
    11    29    30    1
    12    30    31    2
    13    30    32    1
    14    32    33    1
    15     2     3    1
    16     3     4    1
    17     4    16    1
    18    16    17   ar
    19    17    18   ar
    20    18    19   ar
    21    19    20   ar
    22     4     5    2
    23     5     6    1
    24     6     8    1
    25     8     9   ar
    26     9    10   ar
    27    10    11   ar
    28    11    12    1
    29    11    13   ar
    30    13    14   ar
    31    14    15    1
    32     6     1    1
    33    14     8   ar
    34    33    27    1
    35    20    16   ar
    36     3     7    1
@<TRIPOS>MOLECULE
*****
 33 36 0 0 0
SMALL
GASTEIGER

@<TRIPOS>ATOM
      1 C         141.4855  139.8041  163.8554 C.2     1  UNL1        0.1397
      2 C         141.7544  140.0623  162.4025 C.2     1  UNL1        0.1355
      3 N         141.4311  141.4002  161.8062 N.pl3   1  UNL1       -0.1998
      4 C         140.8391  142.4798  162.6628 C.2     1  UNL1        0.3442
      5 N         140.5702  142.2216  164.1157 N.2     1  UNL1       -0.0580
      6 C         140.8935  140.8837  164.7120 C.3     1  UNL1        0.2692
      7 H         141.6076  141.5697  160.8526 H       1  UNL1        0.2983
      8 C         140.6246  140.6254  166.1650 C.ar    1  UNL1        0.0371
      9 C         141.6703  140.9496  167.1904 C.ar    1  UNL1        0.0030
     10 C         141.4015  140.6914  168.6433 C.ar    1  UNL1        0.0295
     11 C         140.0869  140.1090  169.0709 C.ar    1  UNL1        0.1406
     12 F         139.8181  139.8508  170.5238 F       1  UNL1       -0.2042
     13 C         139.0412  139.7848  168.0455 C.ar    1  UNL1        0.0362
     14 C         139.3101  140.0430  166.5925 C.ar    1  UNL1        0.0372
     15 BR        138.2644  139.7188  165.5671 Br      1  UNL1       -0.0491
     16 C         140.5158  143.8177  162.0665 C.ar    1  UNL1        0.1931
     17 N         139.8891  144.9753  162.7856 N.ar    1  UNL1       -0.2297
     18 C         139.7485  146.1060  161.8099 C.ar    1  UNL1        0.1067
     19 C         140.2883  145.6472  160.4878 C.ar    1  UNL1        0.0577
     20 S         140.7626  144.2330  160.6464 S.2     1  UNL1       -0.0586
     21 C         141.8088  138.4662  164.4517 C.2     1  UNL1        0.3447
     22 O         140.7582  137.3971  164.5092 O.2     1  UNL1       -0.2450
     23 O         143.1826  138.1974  164.9905 O.3     1  UNL1       -0.4455
     24 C         145.0875  139.7263  164.1051 C.3     1  UNL1        0.0513
     25 C         144.1412  139.3318  165.2002 C.3     1  UNL1        0.2089
     26 C         142.3465  138.9827  161.5458 C.3     1  UNL1        0.1406
     27 N         141.7447  138.6728  160.2072 N.3     1  UNL1       -0.2571
     28 C         140.2611  138.7735  160.0104 C.3     1  UNL1        0.1378
     29 C         139.6593  138.4636  158.6718 C.3     1  UNL1        0.2729
     30 S         140.5412  138.0528  157.5301 S.O     1  UNL1        0.0333
     31 O         139.9394  137.7429  156.1915 O.co2   1  UNL1       -0.6812
     32 C         142.0248  137.9521  157.7269 C.3     1  UNL1        0.2729
     33 C         142.6266  138.2620  159.0654 C.3     1  UNL1        0.1378
@<TRIPOS>UNITY_ATOM_ATTR
30 1
charge 1
31 1
charge -1
@<TRIPOS>BOND
     1    24    25    1
     2    25    23    1
     3    23    21    1
     4    21    22    2
     5    21     1    1
     6     1     2    2
     7     2    26    1
     8    26    27    1
     9    27    28    1
    10    28    29    1
    11    29    30    1
    12    30    31    2
    13    30    32    1
    14    32    33    1
    15     2     3    1
    16     3     4    1
    17     4    16    1
    18    16    17   ar
    19    17    18   ar
    20    18    19   ar
    21    19    20   ar
    22     4     5    2
    23     5     6    1
    24     6     8    1
    25     8     9   ar
    26     9    10   ar
    27    10    11   ar
    28    11    12    1
    29    11    13   ar
    30    13    14   ar
    31    14    15    1
    32     6     1    1
    33    14     8   ar
    34    33    27    1
    35    20    16   ar
    36     3     7    1
@<TRIPOS>MOLECULE
*****
 33 36 0 0 0
SMALL
GASTEIGER

@<TRIPOS>ATOM
      1 C         139.5743  142.0712  163.7423 C.2     1  UNL1        0.1397
      2 C         139.5778  141.9767  162.2453 C.2     1  UNL1        0.1355
      3 N         140.4553  140.9721  161.5592 N.pl3   1  UNL1       -0.1998
      4 C         141.3293  140.0618  162.3701 C.2     1  UNL1        0.3442
      5 N         141.3258  140.1563  163.8671 N.2     1  UNL1       -0.0580
      6 C         140.4483  141.1609  164.5532 C.3     1  UNL1        0.2692
      7 H         140.4576  140.9101  160.5767 H       1  UNL1        0.2983
      8 C         140.4448  141.2553  166.0503 C.ar    1  UNL1        0.0371
      9 C         141.3442  142.2365  166.7420 C.ar    1  UNL1        0.0030
     10 C         141.3408  142.3309  168.2389 C.ar    1  UNL1        0.0295
     11 C         140.4379  141.4441  169.0443 C.ar    1  UNL1        0.1406
     12 F         140.4345  141.5385  170.5413 F       1  UNL1       -0.2042
     13 C         139.5385  140.4630  168.3527 C.ar    1  UNL1        0.0362
     14 C         139.5420  140.3686  166.8556 C.ar    1  UNL1        0.0372
     15 BR        138.6426  139.3874  166.1639 Br      1  UNL1       -0.0491
     16 C         142.2067  139.0572  161.6840 C.ar    1  UNL1        0.1931
     17 N         141.8450  138.2539  160.4700 N.ar    1  UNL1       -0.2297
     18 C         143.0147  137.3797  160.1271 C.ar    1  UNL1        0.1067
     19 C         144.0993  137.6426  161.1293 C.ar    1  UNL1        0.0577
     20 S         143.6000  138.6793  162.0915 S.2     1  UNL1       -0.0586
     21 C         138.6969  143.0758  164.4284 C.2     1  UNL1        0.3447
     22 O         137.2486  142.7674  164.6676 O.2     1  UNL1       -0.2450
     23 O         139.2677  144.3890  164.8753 O.3     1  UNL1       -0.4455
     24 C         141.6079  145.0311  163.9472 C.3     1  UNL1        0.0513
     25 C         140.1169  145.1955  163.9381 C.3     1  UNL1        0.2089
     26 C         138.7038  142.8870  161.4343 C.3     1  UNL1        0.1406
     27 N         139.2225  143.4864  160.1609 N.3     1  UNL1       -0.2571
     28 C         138.8476  142.8820  158.8403 C.3     1  UNL1        0.1378
     29 C         139.3663  143.4815  157.5668 C.3     1  UNL1        0.2729
     30 S         140.2599  144.6853  157.6140 S.O     1  UNL1        0.0333
     31 O         140.7786  145.2847  156.3406 O.co2   1  UNL1       -0.6812
     32 C         140.6349  145.2897  158.9347 C.3     1  UNL1        0.2729
     33 C         140.1162  144.6903  160.2081 C.3     1  UNL1        0.1378
@<TRIPOS>UNITY_ATOM_ATTR
30 1
charge 1
31 1
charge -1
@<TRIPOS>BOND
     1    24    25    1
     2    25    23    1
     3    23    21    1
     4    21    22    2
     5    21     1    1
     6     1     2    2
     7     2    26    1
     8    26    27    1
     9    27    28    1
    10    28    29    1
    11    29    30    1
    12    30    31    2
    13    30    32    1
    14    32    33    1
    15     2     3    1
    16     3     4    1
    17     4    16    1
    18    16    17   ar
    19    17    18   ar
    20    18    19   ar
    21    19    20   ar
    22     4     5    2
    23     5     6    1
    24     6     8    1
    25     8     9   ar
    26     9    10   ar
    27    10    11   ar
    28    11    12    1
    29    11    13   ar
    30    13    14   ar
    31    14    15    1
    32     6     1    1
    33    14     8   ar
    34    33    27    1
    35    20    16   ar
    36     3     7    1
@<TRIPOS>MOLECULE
*****
 33 36 0 0 0
SMALL
GASTEIGER

@<TRIPOS>ATOM
      1 C         139.0899  141.5084  160.6926 C.2     1  UNL1        0.1397
      2 C         139.1865  140.9875  159.2893 C.2     1  UNL1        0.1355
      3 N         139.4142  141.9372  158.1507 N.pl3   1  UNL1       -0.1998
      4 C         139.5454  143.4078  158.4155 C.2     1  UNL1        0.3442
      5 N         139.4489  143.9286  159.8188 N.2     1  UNL1       -0.0580
      6 C         139.2212  142.9790  160.9574 C.3     1  UNL1        0.2692
      7 H         139.4775  141.5953  157.2297 H       1  UNL1        0.2983
      8 C         139.1247  143.4999  162.3607 C.ar    1  UNL1        0.0371
      9 C         137.7830  143.8140  162.9535 C.ar    1  UNL1        0.0030
     10 C         137.6865  144.3349  164.3568 C.ar    1  UNL1        0.0295
     11 C         138.9316  144.5418  165.1674 C.ar    1  UNL1        0.1406
     12 F         138.8350  145.0627  166.5707 F       1  UNL1       -0.2042
     13 C         140.2732  144.2277  164.5746 C.ar    1  UNL1        0.0362
     14 C         140.3697  143.7067  163.1712 C.ar    1  UNL1        0.0372
     15 BR        141.7113  143.3927  162.5785 Br      1  UNL1       -0.0491
     16 C         139.7731  144.3574  157.2770 C.ar    1  UNL1        0.1931
     17 N         139.5234  144.0705  155.8260 N.ar    1  UNL1       -0.2297
     18 C         139.8865  145.2965  155.0418 C.ar    1  UNL1        0.1067
     19 C         140.3607  146.3413  156.0081 C.ar    1  UNL1        0.0577
     20 S         140.2906  145.7609  157.3895 S.2     1  UNL1       -0.0586
     21 C         138.8622  140.5587  161.8311 C.2     1  UNL1        0.3447
     22 O         137.4747  140.3355  162.3555 O.2     1  UNL1       -0.2450
     23 O         140.0220  139.8322  162.4452 O.3     1  UNL1       -0.4455
     24 C         141.3399  137.5996  162.6143 C.3     1  UNL1        0.0513
     25 C         140.0390  138.3325  162.4708 C.3     1  UNL1        0.2089
     26 C         139.0552  139.5169  159.0244 C.3     1  UNL1        0.1406
     27 N         140.2047  138.7557  158.4334 N.3     1  UNL1       -0.2571
     28 C         141.5690  138.8607  159.0480 C.3     1  UNL1        0.1378
     29 C         142.7185  138.0996  158.4569 C.3     1  UNL1        0.2729
     30 S         142.5037  137.2334  157.2513 S.O     1  UNL1        0.0333
     31 O         143.6532  136.4723  156.6603 O.co2   1  UNL1       -0.6812
     32 C         141.1394  137.1284  156.6366 C.3     1  UNL1        0.2729
     33 C         139.9900  137.8896  157.2277 C.3     1  UNL1        0.1378
@<TRIPOS>UNITY_ATOM_ATTR
30 1
charge 1
31 1
charge -1
@<TRIPOS>BOND
     1    24    25    1
     2    25    23    1
     3    23    21    1
     4    21    22    2
     5    21     1    1
     6     1     2    2
     7     2    26    1
     8    26    27    1
     9    27    28    1
    10    28    29    1
    11    29    30    1
    12    30    31    2
    13    30    32    1
    14    32    33    1
    15     2     3    1
    16     3     4    1
    17     4    16    1
    18    16    17   ar
    19    17    18   ar
    20    18    19   ar
    21    19    20   ar
    22     4     5    2
    23     5     6    1
    24     6     8    1
    25     8     9   ar
    26     9    10   ar
    27    10    11   ar
    28    11    12    1
    29    11    13   ar
    30    13    14   ar
    31    14    15    1
    32     6     1    1
    33    14     8   ar
    34    33    27    1
    35    20    16   ar
    36     3     7    1
@<TRIPOS>MOLECULE
*****
 33 36 0 0 0
SMALL
GASTEIGER

@<TRIPOS>ATOM
      1 C         142.0402  143.1115  160.5331 C.2     1  UNL1        0.1397
      2 C         142.9422  143.0293  159.3375 C.2     1  UNL1        0.1355
      3 N         142.6146  143.8048  158.0960 N.pl3   1  UNL1       -0.1998
      4 C         141.3849  144.6626  158.0502 C.2     1  UNL1        0.3442
      5 N         140.4829  144.7449  159.2459 N.2     1  UNL1       -0.0580
      6 C         140.8106  143.9693  160.4873 C.3     1  UNL1        0.2692
      7 H         143.2066  143.7509  157.3113 H       1  UNL1        0.2983
      8 C         139.9085  144.0516  161.6830 C.ar    1  UNL1        0.0371
      9 C         140.1916  145.0469  162.7689 C.ar    1  UNL1        0.0030
     10 C         139.2896  145.1292  163.9646 C.ar    1  UNL1        0.0295
     11 C         138.1045  144.2162  164.0743 C.ar    1  UNL1        0.1406
     12 F         137.2025  144.2985  165.2700 F       1  UNL1       -0.2042
     13 C         137.8215  143.2208  162.9884 C.ar    1  UNL1        0.0362
     14 C         138.7235  143.1386  161.7927 C.ar    1  UNL1        0.0372
     15 BR        138.4405  142.1433  160.7068 Br      1  UNL1       -0.0491
     16 C         141.0573  145.4382  156.8088 C.ar    1  UNL1        0.1931
     17 N         140.0028  146.4976  156.6836 N.ar    1  UNL1       -0.2297
     18 C         140.0204  147.0047  155.2720 C.ar    1  UNL1        0.1067
     19 C         141.0857  146.2586  154.5247 C.ar    1  UNL1        0.0577
     20 S         141.7265  145.2904  155.4745 S.2     1  UNL1       -0.0586
     21 C         142.3679  142.3360  161.7745 C.2     1  UNL1        0.3447
     22 O         141.6621  141.0435  162.0596 O.2     1  UNL1       -0.2450
     23 O         143.4014  142.8529  162.7309 O.3     1  UNL1       -0.4455
     24 C         143.6952  145.1311  163.9449 C.3     1  UNL1        0.0513
     25 C         143.7947  144.3001  162.7000 C.3     1  UNL1        0.2089
     26 C         144.1719  142.1715  159.3832 C.3     1  UNL1        0.1406
     27 N         145.0278  142.0217  158.1605 N.3     1  UNL1       -0.2571
     28 C         146.2442  142.8820  157.9864 C.3     1  UNL1        0.1378
     29 C         147.1001  142.7322  156.7637 C.3     1  UNL1        0.2729
     30 S         146.7395  141.7221  155.7151 S.O     1  UNL1        0.0333
     31 O         147.5954  141.5723  154.4924 O.co2   1  UNL1       -0.6812
     32 C         145.5232  140.8617  155.8891 C.3     1  UNL1        0.2729
     33 C         144.6673  141.0115  157.1118 C.3     1  UNL1        0.1378
@<TRIPOS>UNITY_ATOM_ATTR
30 1
charge 1
31 1
charge -1
@<TRIPOS>BOND
     1    24    25    1
     2    25    23    1
     3    23    21    1
     4    21    22    2
     5    21     1    1
     6     1     2    2
     7     2    26    1
     8    26    27    1
     9    27    28    1
    10    28    29    1
    11    29    30    1
    12    30    31    2
    13    30    32    1
    14    32    33    1
    15     2     3    1
    16     3     4    1
    17     4    16    1
    18    16    17   ar
    19    17    18   ar
    20    18    19   ar
    21    19    20   ar
    22     4     5    2
    23     5     6    1
    24     6     8    1
    25     8     9   ar
    26     9    10   ar
    27    10    11   ar
    28    11    12    1
    29    11    13   ar
    30    13    14   ar
    31    14    15    1
    32     6     1    1
    33    14     8   ar
    34    33    27    1
    35    20    16   ar
    36     3     7    1
@<TRIPOS>MOLECULE
*****
 33 36 0 0 0
SMALL
GASTEIGER

@<TRIPOS>ATOM
      1 C         140.6654  141.6172  160.8376 C.2     1  UNL1        0.1397
      2 C         140.9568  140.8789  159.5649 C.2     1  UNL1        0.1355
      3 N         139.9609  140.8954  158.4433 N.pl3   1  UNL1       -0.1998
      4 C         138.6735  141.6501  158.5945 C.2     1  UNL1        0.3442
      5 N         138.3820  142.3884  159.8673 N.2     1  UNL1       -0.0580
      6 C         139.3780  142.3719  160.9888 C.3     1  UNL1        0.2692
      7 H         140.1522  140.4108  157.6080 H       1  UNL1        0.2983
      8 C         139.0864  143.1102  162.2616 C.ar    1  UNL1        0.0371
      9 C         139.6629  144.4770  162.4847 C.ar    1  UNL1        0.0030
     10 C         139.3714  145.2153  163.7574 C.ar    1  UNL1        0.0295
     11 C         138.5034  144.5869  164.8072 C.ar    1  UNL1        0.1406
     12 F         138.2119  145.3252  166.0799 F       1  UNL1       -0.2042
     13 C         137.9270  143.2201  164.5841 C.ar    1  UNL1        0.0362
     14 C         138.2185  142.4818  163.3113 C.ar    1  UNL1        0.0372
     15 BR        137.6421  141.1151  163.0882 Br      1  UNL1       -0.0491
     16 C         137.6776  141.6666  157.4730 C.ar    1  UNL1        0.1931
     17 N         136.6853  140.5864  157.1590 N.ar    1  UNL1       -0.2297
     18 C         135.8935  141.0183  155.9605 C.ar    1  UNL1        0.1067
     19 C         136.3964  142.3655  155.5337 C.ar    1  UNL1        0.0577
     20 S         137.4990  142.7661  156.4685 S.2     1  UNL1       -0.0586
     21 C         141.6613  141.6007  161.9592 C.2     1  UNL1        0.3447
     22 O         141.6373  140.4903  162.9673 O.2     1  UNL1       -0.2450
     23 O         142.6813  142.6946  162.0726 O.3     1  UNL1       -0.4455
     24 C         143.5043  144.7166  163.4812 C.3     1  UNL1        0.0513
     25 C         142.9674  143.3179  163.4066 C.3     1  UNL1        0.2089
     26 C         142.2443  140.1241  159.4136 C.3     1  UNL1        0.1406
     27 N         143.3436  140.6801  158.5578 N.3     1  UNL1       -0.2571
     28 C         144.0476  141.9401  158.9663 C.3     1  UNL1        0.1378
     29 C         145.1470  142.4961  158.1105 C.3     1  UNL1        0.2729
     30 S         145.5422  141.7922  156.8463 S.O     1  UNL1        0.0333
     31 O         146.6415  142.3482  155.9905 O.co2   1  UNL1       -0.6812
     32 C         144.8382  140.5322  156.4378 C.3     1  UNL1        0.2729
     33 C         143.7389  139.9762  157.2936 C.3     1  UNL1        0.1378
@<TRIPOS>UNITY_ATOM_ATTR
30 1
charge 1
31 1
charge -1
@<TRIPOS>BOND
     1    24    25    1
     2    25    23    1
     3    23    21    1
     4    21    22    2
     5    21     1    1
     6     1     2    2
     7     2    26    1
     8    26    27    1
     9    27    28    1
    10    28    29    1
    11    29    30    1
    12    30    31    2
    13    30    32    1
    14    32    33    1
    15     2     3    1
    16     3     4    1
    17     4    16    1
    18    16    17   ar
    19    17    18   ar
    20    18    19   ar
    21    19    20   ar
    22     4     5    2
    23     5     6    1
    24     6     8    1
    25     8     9   ar
    26     9    10   ar
    27    10    11   ar
    28    11    12    1
    29    11    13   ar
    30    13    14   ar
    31    14    15    1
    32     6     1    1
    33    14     8   ar
    34    33    27    1
    35    20    16   ar
    36     3     7    1
@<TRIPOS>MOLECULE
*****
 33 36 0 0 0
SMALL
GASTEIGER

@<TRIPOS>ATOM
      1 C         141.3389  142.0016  162.0651 C.2     1  UNL1        0.1397
      2 C         141.9360  142.3447  160.7325 C.2     1  UNL1        0.1355
      3 N         142.0699  141.2881  159.6762 N.pl3   1  UNL1       -0.1998
      4 C         141.6069  139.8884  159.9526 C.2     1  UNL1        0.3442
      5 N         141.0098  139.5453  161.2851 N.2     1  UNL1       -0.0580
      6 C         140.8759  140.6019  162.3414 C.3     1  UNL1        0.2692
      7 H         142.4618  141.5133  158.8016 H       1  UNL1        0.2983
      8 C         140.2788  140.2587  163.6740 C.ar    1  UNL1        0.0371
      9 C         141.1632  139.8060  164.7978 C.ar    1  UNL1        0.0030
     10 C         140.5662  139.4628  166.1304 C.ar    1  UNL1        0.0295
     11 C         139.0848  139.5724  166.3392 C.ar    1  UNL1        0.1406
     12 F         138.4878  139.2292  167.6718 F       1  UNL1       -0.2042
     13 C         138.2005  140.0251  165.2154 C.ar    1  UNL1        0.0362
     14 C         138.7975  140.3683  163.8828 C.ar    1  UNL1        0.0372
     15 BR        137.9132  140.8210  162.7590 Br      1  UNL1       -0.0491
     16 C         141.7408  138.8318  158.8963 C.ar    1  UNL1        0.1931
     17 N         142.9702  138.0213  158.6110 N.ar    1  UNL1       -0.2297
     18 C         142.6581  137.0888  157.4782 C.ar    1  UNL1        0.1067
     19 C         141.2358  137.3231  157.0635 C.ar    1  UNL1        0.0577
     20 S         140.6689  138.4003  157.9399 S.2     1  UNL1       -0.0586
     21 C         141.2050  143.0582  163.1213 C.2     1  UNL1        0.3447
     22 O         142.3357  143.3150  164.0729 O.2     1  UNL1       -0.2450
     23 O         139.9403  143.8579  163.2260 O.3     1  UNL1       -0.4455
     24 C         137.8539  144.1749  164.7414 C.3     1  UNL1        0.0513
     25 C         139.3441  144.1455  164.5720 C.3     1  UNL1        0.2089
     26 C         142.3990  143.7445  160.4561 C.3     1  UNL1        0.1406
     27 N         141.9282  144.4609  159.2253 N.3     1  UNL1       -0.2571
     28 C         142.6862  144.3191  157.9388 C.3     1  UNL1        0.1378
     29 C         142.2153  145.0356  156.7079 C.3     1  UNL1        0.2729
     30 S         140.9865  145.8940  156.7637 S.O     1  UNL1        0.0333
     31 O         140.5157  146.6105  155.5329 O.co2   1  UNL1       -0.6812
     32 C         140.2285  146.0359  158.0503 C.3     1  UNL1        0.2729
     33 C         140.6993  145.3194  159.2811 C.3     1  UNL1        0.1378
@<TRIPOS>UNITY_ATOM_ATTR
30 1
charge 1
31 1
charge -1
@<TRIPOS>BOND
     1    24    25    1
     2    25    23    1
     3    23    21    1
     4    21    22    2
     5    21     1    1
     6     1     2    2
     7     2    26    1
     8    26    27    1
     9    27    28    1
    10    28    29    1
    11    29    30    1
    12    30    31    2
    13    30    32    1
    14    32    33    1
    15     2     3    1
    16     3     4    1
    17     4    16    1
    18    16    17   ar
    19    17    18   ar
    20    18    19   ar
    21    19    20   ar
    22     4     5    2
    23     5     6    1
    24     6     8    1
    25     8     9   ar
    26     9    10   ar
    27    10    11   ar
    28    11    12    1
    29    11    13   ar
    30    13    14   ar
    31    14    15    1
    32     6     1    1
    33    14     8   ar
    34    33    27    1
    35    20    16   ar
    36     3     7    1
