@<TRIPOS>MOLECULE
*****
 28 30 0 0 0
SMALL
GASTEIGER

@<TRIPOS>ATOM
      1 C         140.1062  138.0548  163.3738 C.ar    1  UNL1        0.1387
      2 C         138.8424  137.6822  164.0907 C.ar    1  UNL1        0.0371
      3 C         138.5774  138.2126  165.4685 C.ar    1  UNL1        0.0078
      4 C         139.5762  139.1156  166.1295 C.ar    1  UNL1        0.0565
      5 C         139.3112  139.6460  167.5073 C.ar    1  UNL1        0.2614
      6 O         138.0474  139.2735  168.2242 O.2     1  UNL1       -0.2670
      7 N         140.3101  140.5490  168.1683 N.ar    1  UNL1       -0.2847
      8 C         141.5740  140.9216  167.4515 C.ar    1  UNL1        0.1318
      9 C         141.8390  140.3911  166.0736 C.ar    1  UNL1        0.0261
     10 C         140.8400  139.4881  165.4126 C.ar    1  UNL1        0.0097
     11 C         141.1050  138.9577  164.0348 C.ar    1  UNL1        0.0371
     12 C         143.1028  140.7637  165.3568 C.ar    1  UNL1        0.0021
     13 C         144.1082  139.7058  165.0102 C.ar    1  UNL1        0.0001
     14 C         145.3721  140.0785  164.2933 C.ar    1  UNL1        0.0000
     15 C         145.6305  141.5088  163.9230 C.ar    1  UNL1        0.0000
     16 C         144.6250  142.5667  164.2695 C.ar    1  UNL1        0.0000
     17 C         143.3612  142.1941  164.9864 C.ar    1  UNL1        0.0001
     18 C         141.6134  137.9327  161.2612 C.3     1  UNL1        0.2525
     19 O         140.3712  137.5243  161.9960 O.3     1  UNL1       -0.4714
     20 C         142.5728  141.8245  168.1124 C.1     1  UNL1        0.1180
     21 N         143.5717  142.7275  168.7734 N.1     1  UNL1       -0.1893
     22 C         140.0451  141.0794  169.5462 C.3     1  UNL1        0.1413
     23 C         140.5673  140.3454  170.7456 C.3     1  UNL1        0.1623
     24 O         139.7588  139.2415  171.3601 O.3     1  UNL1       -0.3799
     25 H         138.9322  139.1317  170.8645 H       1  UNL1        0.2105
     26 C         141.8981  140.7154  171.3306 C.3     1  UNL1        0.1683
     27 O         142.1850  142.1407  171.6995 O.3     1  UNL1       -0.3794
     28 H         142.2035  142.6850  170.8968 H       1  UNL1        0.2105
@<TRIPOS>BOND
     1    18    19    1
     2    19     1    1
     3     1     2   ar
     4     2     3   ar
     5     3     4   ar
     6     4     5   ar
     7     5     6    2
     8     5     7   ar
     9     7    22    1
    10    22    23    1
    11    23    24    1
    12    23    26    1
    13    26    27    1
    14     7     8   ar
    15     8    20    1
    16    20    21    3
    17     8     9   ar
    18     9    12    1
    19    12    13   ar
    20    13    14   ar
    21    14    15   ar
    22    15    16   ar
    23    16    17   ar
    24     9    10   ar
    25    10    11   ar
    26    11     1   ar
    27    10     4   ar
    28    17    12   ar
    29    24    25    1
    30    27    28    1
@<TRIPOS>MOLECULE
*****
 28 30 0 0 0
SMALL
GASTEIGER

@<TRIPOS>ATOM
      1 C         140.3058  140.9044  169.5611 C.ar    1  UNL1        0.1387
      2 C         141.3427  139.8904  169.9439 C.ar    1  UNL1        0.0371
      3 C         142.2350  139.2971  168.8942 C.ar    1  UNL1        0.0078
      4 C         142.0903  139.7179  167.4617 C.ar    1  UNL1        0.0565
      5 C         142.9826  139.1246  166.4120 C.ar    1  UNL1        0.2614
      6 O         144.0195  138.1106  166.7947 O.2     1  UNL1       -0.2670
      7 N         142.8379  139.5453  164.9795 N.ar    1  UNL1       -0.2847
      8 C         141.8010  140.5594  164.5967 C.ar    1  UNL1        0.1318
      9 C         140.9087  141.1527  165.6464 C.ar    1  UNL1        0.0261
     10 C         141.0534  140.7319  167.0789 C.ar    1  UNL1        0.0097
     11 C         140.1612  141.3252  168.1287 C.ar    1  UNL1        0.0371
     12 C         139.8718  142.1667  165.2637 C.ar    1  UNL1        0.0021
     13 C         140.1656  143.6307  165.4069 C.ar    1  UNL1        0.0001
     14 C         139.1286  144.6447  165.0241 C.ar    1  UNL1        0.0000
     15 C         137.7979  144.1948  164.4981 C.ar    1  UNL1        0.0000
     16 C         137.5041  142.7308  164.3549 C.ar    1  UNL1        0.0000
     17 C         138.5410  141.7168  164.7376 C.ar    1  UNL1        0.0001
     18 C         139.5518  142.9443  170.9825 C.3     1  UNL1        0.2525
     19 O         139.4136  141.4977  170.6108 O.3     1  UNL1       -0.4714
     20 C         141.6563  140.9801  163.1642 C.1     1  UNL1        0.1180
     21 N         141.5117  141.4009  161.7317 N.1     1  UNL1       -0.1893
     22 C         143.7302  138.9520  163.9298 C.3     1  UNL1        0.1413
     23 C         144.6822  139.8290  163.1717 C.3     1  UNL1        0.1623
     24 O         144.8228  139.6751  161.6862 O.3     1  UNL1       -0.3799
     25 H         144.2324  138.9704  161.3769 H       1  UNL1        0.2105
     26 C         145.4936  140.8598  163.8990 C.3     1  UNL1        0.1683
     27 O         146.3385  141.8302  163.1280 O.3     1  UNL1       -0.3794
     28 H         147.0513  141.3511  162.6771 H       1  UNL1        0.2105
@<TRIPOS>BOND
     1    18    19    1
     2    19     1    1
     3     1     2   ar
     4     2     3   ar
     5     3     4   ar
     6     4     5   ar
     7     5     6    2
     8     5     7   ar
     9     7    22    1
    10    22    23    1
    11    23    24    1
    12    23    26    1
    13    26    27    1
    14     7     8   ar
    15     8    20    1
    16    20    21    3
    17     8     9   ar
    18     9    12    1
    19    12    13   ar
    20    13    14   ar
    21    14    15   ar
    22    15    16   ar
    23    16    17   ar
    24     9    10   ar
    25    10    11   ar
    26    11     1   ar
    27    10     4   ar
    28    17    12   ar
    29    24    25    1
    30    27    28    1
@<TRIPOS>MOLECULE
*****
 28 30 0 0 0
SMALL
GASTEIGER

@<TRIPOS>ATOM
      1 C         140.8769  142.1302  169.0549 C.ar    1  UNL1        0.1387
      2 C         139.9449  141.0251  169.4549 C.ar    1  UNL1        0.0371
      3 C         139.2751  140.1913  168.4032 C.ar    1  UNL1        0.0078
      4 C         139.5373  140.4626  166.9514 C.ar    1  UNL1        0.0565
      5 C         138.8675  139.6287  165.8997 C.ar    1  UNL1        0.2614
      6 O         137.9355  138.5237  166.2997 O.2     1  UNL1       -0.2670
      7 N         139.1297  139.9000  164.4480 N.ar    1  UNL1       -0.2847
      8 C         140.0618  141.0051  164.0479 C.ar    1  UNL1        0.1318
      9 C         140.7316  141.8390  165.0996 C.ar    1  UNL1        0.0261
     10 C         140.4693  141.5676  166.5514 C.ar    1  UNL1        0.0097
     11 C         141.1391  142.4015  167.6031 C.ar    1  UNL1        0.0371
     12 C         141.6636  142.9441  164.6996 C.ar    1  UNL1        0.0021
     13 C         143.1471  142.7255  164.7399 C.ar    1  UNL1        0.0001
     14 C         144.0791  143.8307  164.3398 C.ar    1  UNL1        0.0000
     15 C         143.5277  145.1543  163.8995 C.ar    1  UNL1        0.0000
     16 C         142.0443  145.3728  163.8592 C.ar    1  UNL1        0.0000
     17 C         141.1122  144.2678  164.2592 C.ar    1  UNL1        0.0001
     18 C         143.0305  142.8707  170.3053 C.3     1  UNL1        0.2525
     19 O         141.5467  142.9640  170.1066 O.3     1  UNL1       -0.4714
     20 C         140.3241  141.2764  162.5961 C.1     1  UNL1        0.1180
     21 N         140.5863  141.5477  161.1443 N.1     1  UNL1       -0.1893
     22 C         138.4600  139.0662  163.3962 C.3     1  UNL1        0.1413
     23 C         139.2420  138.0211  162.6571 C.3     1  UNL1        0.1623
     24 O         138.8332  137.6189  161.2711 O.3     1  UNL1       -0.3799
     25 H         138.0506  138.1264  161.0047 H       1  UNL1        0.2105
     26 C         140.4328  137.3781  163.3041 C.3     1  UNL1        0.1683
     27 O         141.5972  136.9411  162.4655 O.3     1  UNL1       -0.3794
     28 H         141.3209  136.2188  161.8800 H       1  UNL1        0.2105
@<TRIPOS>BOND
     1    18    19    1
     2    19     1    1
     3     1     2   ar
     4     2     3   ar
     5     3     4   ar
     6     4     5   ar
     7     5     6    2
     8     5     7   ar
     9     7    22    1
    10    22    23    1
    11    23    24    1
    12    23    26    1
    13    26    27    1
    14     7     8   ar
    15     8    20    1
    16    20    21    3
    17     8     9   ar
    18     9    12    1
    19    12    13   ar
    20    13    14   ar
    21    14    15   ar
    22    15    16   ar
    23    16    17   ar
    24     9    10   ar
    25    10    11   ar
    26    11     1   ar
    27    10     4   ar
    28    17    12   ar
    29    24    25    1
    30    27    28    1
@<TRIPOS>MOLECULE
*****
 28 30 0 0 0
SMALL
GASTEIGER

@<TRIPOS>ATOM
      1 C         140.4310  141.7741  168.7304 C.ar    1  UNL1        0.1387
      2 C         139.5614  140.5703  168.9413 C.ar    1  UNL1        0.0371
      3 C         139.2015  139.6922  167.7796 C.ar    1  UNL1        0.0078
      4 C         139.7113  140.0180  166.4070 C.ar    1  UNL1        0.0565
      5 C         139.3515  139.1400  165.2453 C.ar    1  UNL1        0.2614
      6 O         138.4818  137.9362  165.4562 O.2     1  UNL1       -0.2670
      7 N         139.8613  139.4658  163.8728 N.ar    1  UNL1       -0.2847
      8 C         140.7309  140.6697  163.6619 C.ar    1  UNL1        0.1318
      9 C         141.0908  141.5477  164.8236 C.ar    1  UNL1        0.0261
     10 C         140.5809  141.2219  166.1962 C.ar    1  UNL1        0.0097
     11 C         140.9408  142.0999  167.3579 C.ar    1  UNL1        0.0371
     12 C         141.9604  142.7515  164.6127 C.ar    1  UNL1        0.0021
     13 C         143.4304  142.6747  164.9013 C.ar    1  UNL1        0.0001
     14 C         144.3000  143.8786  164.6905 C.ar    1  UNL1        0.0000
     15 C         143.6997  145.1593  164.1910 C.ar    1  UNL1        0.0000
     16 C         142.2297  145.2361  163.9024 C.ar    1  UNL1        0.0000
     17 C         141.3601  144.0323  164.1133 C.ar    1  UNL1        0.0001
     18 C         140.3716  144.0923  169.9019 C.3     1  UNL1        0.2525
     19 O         140.7909  142.6521  169.8921 O.3     1  UNL1       -0.4714
     20 C         141.2407  140.9955  162.2893 C.1     1  UNL1        0.1180
     21 N         141.7505  141.3212  160.9167 N.1     1  UNL1       -0.1893
     22 C         139.5014  138.5877  162.7111 C.3     1  UNL1        0.1413
     23 C         138.1794  138.7586  162.0231 C.3     1  UNL1        0.1623
     24 O         137.3414  137.5572  161.6998 O.3     1  UNL1       -0.3799
     25 H         137.7964  136.7552  162.0007 H       1  UNL1        0.2105
     26 C         137.6955  140.1307  161.6583 C.3     1  UNL1        0.1683
     27 O         136.9062  140.9353  162.6480 O.3     1  UNL1       -0.3794
     28 H         136.0545  140.5011  162.8118 H       1  UNL1        0.2105
@<TRIPOS>BOND
     1    18    19    1
     2    19     1    1
     3     1     2   ar
     4     2     3   ar
     5     3     4   ar
     6     4     5   ar
     7     5     6    2
     8     5     7   ar
     9     7    22    1
    10    22    23    1
    11    23    24    1
    12    23    26    1
    13    26    27    1
    14     7     8   ar
    15     8    20    1
    16    20    21    3
    17     8     9   ar
    18     9    12    1
    19    12    13   ar
    20    13    14   ar
    21    14    15   ar
    22    15    16   ar
    23    16    17   ar
    24     9    10   ar
    25    10    11   ar
    26    11     1   ar
    27    10     4   ar
    28    17    12   ar
    29    24    25    1
    30    27    28    1
@<TRIPOS>MOLECULE
*****
 28 30 0 0 0
SMALL
GASTEIGER

@<TRIPOS>ATOM
      1 C         140.6307  140.7797  169.1482 C.ar    1  UNL1        0.1387
      2 C         141.7072  139.7640  169.3916 C.ar    1  UNL1        0.0371
      3 C         142.5347  139.2591  168.2470 C.ar    1  UNL1        0.0078
      4 C         142.2857  139.7699  166.8588 C.ar    1  UNL1        0.0565
      5 C         143.1132  139.2650  165.7142 C.ar    1  UNL1        0.2614
      6 O         144.1897  138.2493  165.9576 O.2     1  UNL1       -0.2670
      7 N         142.8642  139.7759  164.3260 N.ar    1  UNL1       -0.2847
      8 C         141.7877  140.7917  164.0825 C.ar    1  UNL1        0.1318
      9 C         140.9601  141.2966  165.2272 C.ar    1  UNL1        0.0261
     10 C         141.2092  140.7857  166.6154 C.ar    1  UNL1        0.0097
     11 C         140.3817  141.2906  167.7600 C.ar    1  UNL1        0.0371
     12 C         139.8836  142.3123  164.9837 C.ar    1  UNL1        0.0021
     13 C         138.4992  141.8651  164.6184 C.ar    1  UNL1        0.0001
     14 C         137.4227  142.8809  164.3749 C.ar    1  UNL1        0.0000
     15 C         137.7306  144.3439  164.4967 C.ar    1  UNL1        0.0000
     16 C         139.1150  144.7911  164.8620 C.ar    1  UNL1        0.0000
     17 C         140.1915  143.7754  165.1055 C.ar    1  UNL1        0.0001
     18 C         139.8185  142.7429  170.6436 C.3     1  UNL1        0.2525
     19 O         139.8031  141.2846  170.2929 O.3     1  UNL1       -0.4714
     20 C         141.5387  141.3025  162.6943 C.1     1  UNL1        0.1180
     21 N         141.2897  141.8134  161.3061 N.1     1  UNL1       -0.1893
     22 C         143.6918  139.2710  163.1813 C.3     1  UNL1        0.1413
     23 C         143.1814  138.1513  162.3234 C.3     1  UNL1        0.1623
     24 O         144.1251  137.3985  161.4331 O.3     1  UNL1       -0.3799
     25 H         145.0200  137.7595  161.5317 H       1  UNL1        0.2105
     26 C         141.7273  137.7844  162.3559 C.3     1  UNL1        0.1683
     27 O         141.2599  136.6463  163.2139 O.3     1  UNL1       -0.3794
     28 H         141.6296  135.8149  162.8776 H       1  UNL1        0.2105
@<TRIPOS>BOND
     1    18    19    1
     2    19     1    1
     3     1     2   ar
     4     2     3   ar
     5     3     4   ar
     6     4     5   ar
     7     5     6    2
     8     5     7   ar
     9     7    22    1
    10    22    23    1
    11    23    24    1
    12    23    26    1
    13    26    27    1
    14     7     8   ar
    15     8    20    1
    16    20    21    3
    17     8     9   ar
    18     9    12    1
    19    12    13   ar
    20    13    14   ar
    21    14    15   ar
    22    15    16   ar
    23    16    17   ar
    24     9    10   ar
    25    10    11   ar
    26    11     1   ar
    27    10     4   ar
    28    17    12   ar
    29    24    25    1
    30    27    28    1
@<TRIPOS>MOLECULE
*****
 28 30 0 0 0
SMALL
GASTEIGER

@<TRIPOS>ATOM
      1 C         144.3517  139.8417  164.7902 C.ar    1  UNL1        0.1387
      2 C         145.0003  140.4086  163.5623 C.ar    1  UNL1        0.0371
      3 C         144.4465  141.6492  162.9265 C.ar    1  UNL1        0.0078
      4 C         143.2442  142.3229  163.5186 C.ar    1  UNL1        0.0565
      5 C         142.6905  143.5635  162.8828 C.ar    1  UNL1        0.2614
      6 O         143.3391  144.1305  161.6549 O.2     1  UNL1       -0.2670
      7 N         141.4882  144.2372  163.4749 N.ar    1  UNL1       -0.2847
      8 C         140.8396  143.6702  164.7029 C.ar    1  UNL1        0.1318
      9 C         141.3933  142.4296  165.3387 C.ar    1  UNL1        0.0261
     10 C         142.5957  141.7559  164.7465 C.ar    1  UNL1        0.0097
     11 C         143.1494  140.5153  165.3823 C.ar    1  UNL1        0.0371
     12 C         140.7448  141.8626  166.5667 C.ar    1  UNL1        0.0021
     13 C         139.8505  140.6633  166.4568 C.ar    1  UNL1        0.0001
     14 C         139.2019  140.0964  167.6848 C.ar    1  UNL1        0.0000
     15 C         139.4477  140.7287  169.0226 C.ar    1  UNL1        0.0000
     16 C         140.3419  141.9279  169.1325 C.ar    1  UNL1        0.0000
     17 C         140.9905  142.4949  167.9046 C.ar    1  UNL1        0.0001
     18 C         144.1437  137.9157  166.5215 C.3     1  UNL1        0.2525
     19 O         144.9054  138.6010  165.4260 O.3     1  UNL1       -0.4714
     20 C         139.6373  144.3438  165.2950 C.1     1  UNL1        0.1180
     21 N         138.4350  145.0176  165.8872 N.1     1  UNL1       -0.1893
     22 C         140.9345  145.4778  162.8391 C.3     1  UNL1        0.1413
     23 C         139.8810  145.3699  161.7767 C.3     1  UNL1        0.1623
     24 O         138.4502  145.1346  162.1605 O.3     1  UNL1       -0.3799
     25 H         138.3797  145.0770  163.1262 H       1  UNL1        0.2105
     26 C         140.2584  145.4973  160.3306 C.3     1  UNL1        0.1683
     27 O         141.7036  145.5745  159.9366 O.3     1  UNL1       -0.3794
     28 H         142.0883  146.3970  160.2778 H       1  UNL1        0.2105
@<TRIPOS>BOND
     1    18    19    1
     2    19     1    1
     3     1     2   ar
     4     2     3   ar
     5     3     4   ar
     6     4     5   ar
     7     5     6    2
     8     5     7   ar
     9     7    22    1
    10    22    23    1
    11    23    24    1
    12    23    26    1
    13    26    27    1
    14     7     8   ar
    15     8    20    1
    16    20    21    3
    17     8     9   ar
    18     9    12    1
    19    12    13   ar
    20    13    14   ar
    21    14    15   ar
    22    15    16   ar
    23    16    17   ar
    24     9    10   ar
    25    10    11   ar
    26    11     1   ar
    27    10     4   ar
    28    17    12   ar
    29    24    25    1
    30    27    28    1
@<TRIPOS>MOLECULE
*****
 28 30 0 0 0
SMALL
GASTEIGER

@<TRIPOS>ATOM
      1 C         141.6257  141.0709  168.8285 C.ar    1  UNL1        0.1387
      2 C         140.2714  140.5475  169.2051 C.ar    1  UNL1        0.0371
      3 C         139.3922  139.9230  168.1625 C.ar    1  UNL1        0.0078
      4 C         139.8672  139.8220  166.7433 C.ar    1  UNL1        0.0565
      5 C         138.9880  139.1976  165.7007 C.ar    1  UNL1        0.2614
      6 O         137.6337  138.6741  166.0773 O.2     1  UNL1       -0.2670
      7 N         139.4630  139.0966  164.2816 N.ar    1  UNL1       -0.2847
      8 C         140.8174  139.6200  163.9049 C.ar    1  UNL1        0.1318
      9 C         141.6966  140.2444  164.9475 C.ar    1  UNL1        0.0261
     10 C         141.2215  140.3454  166.3667 C.ar    1  UNL1        0.0097
     11 C         142.1007  140.9699  167.4093 C.ar    1  UNL1        0.0371
     12 C         143.0509  140.7679  164.5709 C.ar    1  UNL1        0.0021
     13 C         143.2230  142.2144  164.2131 C.ar    1  UNL1        0.0001
     14 C         144.5774  142.7378  163.8366 C.ar    1  UNL1        0.0000
     15 C         145.7596  141.8147  163.8178 C.ar    1  UNL1        0.0000
     16 C         145.5875  140.3682  164.1755 C.ar    1  UNL1        0.0000
     17 C         144.2332  139.8448  164.5521 C.ar    1  UNL1        0.0001
     18 C         141.9397  142.0500  171.2144 C.3     1  UNL1        0.2525
     19 O         142.5049  141.6954  169.8711 O.3     1  UNL1       -0.4714
     20 C         141.2924  139.5190  162.4858 C.1     1  UNL1        0.1180
     21 N         141.7675  139.4179  161.0665 N.1     1  UNL1       -0.1893
     22 C         138.5837  138.4721  163.2390 C.3     1  UNL1        0.1413
     23 C         137.7709  139.3407  162.3252 C.3     1  UNL1        0.1623
     24 O         136.9981  138.7253  161.1965 O.3     1  UNL1       -0.3799
     25 H         137.1317  137.7645  161.1992 H       1  UNL1        0.2105
     26 C         137.7310  140.8247  162.5401 C.3     1  UNL1        0.1683
     27 O         136.5792  141.4456  163.2733 O.3     1  UNL1       -0.3794
     28 H         135.7677  141.3350  162.7536 H       1  UNL1        0.2105
@<TRIPOS>BOND
     1    18    19    1
     2    19     1    1
     3     1     2   ar
     4     2     3   ar
     5     3     4   ar
     6     4     5   ar
     7     5     6    2
     8     5     7   ar
     9     7    22    1
    10    22    23    1
    11    23    24    1
    12    23    26    1
    13    26    27    1
    14     7     8   ar
    15     8    20    1
    16    20    21    3
    17     8     9   ar
    18     9    12    1
    19    12    13   ar
    20    13    14   ar
    21    14    15   ar
    22    15    16   ar
    23    16    17   ar
    24     9    10   ar
    25    10    11   ar
    26    11     1   ar
    27    10     4   ar
    28    17    12   ar
    29    24    25    1
    30    27    28    1
@<TRIPOS>MOLECULE
*****
 28 30 0 0 0
SMALL
GASTEIGER

@<TRIPOS>ATOM
      1 C         143.3151  143.0327  163.3136 C.ar    1  UNL1        0.1387
      2 C         144.2168  143.5696  164.3854 C.ar    1  UNL1        0.0371
      3 C         143.9471  143.2448  165.8247 C.ar    1  UNL1        0.0078
      4 C         142.7758  142.3830  166.1923 C.ar    1  UNL1        0.0565
      5 C         142.5061  142.0581  167.6317 C.ar    1  UNL1        0.2614
      6 O         143.4078  142.5950  168.7034 O.2     1  UNL1       -0.2670
      7 N         141.3348  141.1963  167.9993 N.ar    1  UNL1       -0.2847
      8 C         140.4331  140.6592  166.9276 C.ar    1  UNL1        0.1318
      9 C         140.7027  140.9841  165.4882 C.ar    1  UNL1        0.0261
     10 C         141.8741  141.8460  165.1206 C.ar    1  UNL1        0.0097
     11 C         142.1438  142.1709  163.6813 C.ar    1  UNL1        0.0371
     12 C         139.8011  140.4472  164.4165 C.ar    1  UNL1        0.0021
     13 C         138.6055  141.2388  163.9760 C.ar    1  UNL1        0.0001
     14 C         137.7039  140.7017  162.9042 C.ar    1  UNL1        0.0000
     15 C         137.9977  139.3732  162.2730 C.ar    1  UNL1        0.0000
     16 C         139.1933  138.5816  162.7135 C.ar    1  UNL1        0.0000
     17 C         140.0949  139.1185  163.7852 C.ar    1  UNL1        0.0001
     18 C         144.3177  142.3761  161.0085 C.3     1  UNL1        0.2525
     19 O         143.5848  143.3576  161.8743 O.3     1  UNL1       -0.4714
     20 C         139.2617  139.7974  167.2952 C.1     1  UNL1        0.1180
     21 N         138.0903  138.9355  167.6628 N.1     1  UNL1       -0.1893
     22 C         141.0651  140.8714  169.4387 C.3     1  UNL1        0.1413
     23 C         139.8861  141.4815  170.1371 C.3     1  UNL1        0.1623
     24 O         138.6640  140.6548  170.4071 O.3     1  UNL1       -0.3799
     25 H         138.8004  139.7561  170.0687 H       1  UNL1        0.2105
     26 C         139.9293  142.9184  170.5655 C.3     1  UNL1        0.1683
     27 O         138.8958  143.4497  171.5139 O.3     1  UNL1       -0.3794
     28 H         138.0256  143.4341  171.0857 H       1  UNL1        0.2105
@<TRIPOS>BOND
     1    18    19    1
     2    19     1    1
     3     1     2   ar
     4     2     3   ar
     5     3     4   ar
     6     4     5   ar
     7     5     6    2
     8     5     7   ar
     9     7    22    1
    10    22    23    1
    11    23    24    1
    12    23    26    1
    13    26    27    1
    14     7     8   ar
    15     8    20    1
    16    20    21    3
    17     8     9   ar
    18     9    12    1
    19    12    13   ar
    20    13    14   ar
    21    14    15   ar
    22    15    16   ar
    23    16    17   ar
    24     9    10   ar
    25    10    11   ar
    26    11     1   ar
    27    10     4   ar
    28    17    12   ar
    29    24    25    1
    30    27    28    1
@<TRIPOS>MOLECULE
*****
 28 30 0 0 0
SMALL
GASTEIGER

@<TRIPOS>ATOM
      1 C         142.7140  140.9925  168.2059 C.ar    1  UNL1        0.1387
      2 C         143.5112  142.1934  167.7908 C.ar    1  UNL1        0.0371
      3 C         143.1892  142.9004  166.5077 C.ar    1  UNL1        0.0078
      4 C         142.0701  142.4066  165.6397 C.ar    1  UNL1        0.0565
      5 C         141.7481  143.1137  164.3566 C.ar    1  UNL1        0.2614
      6 O         142.5453  144.3146  163.9415 O.2     1  UNL1       -0.2670
      7 N         140.6289  142.6199  163.4885 N.ar    1  UNL1       -0.2847
      8 C         139.8316  141.4190  163.9036 C.ar    1  UNL1        0.1318
      9 C         140.1536  140.7119  165.1867 C.ar    1  UNL1        0.0261
     10 C         141.2728  141.2058  166.0547 C.ar    1  UNL1        0.0097
     11 C         141.5948  140.4987  167.3379 C.ar    1  UNL1        0.0371
     12 C         139.3564  139.5111  165.6017 C.ar    1  UNL1        0.0021
     13 C         139.5836  138.1904  164.9278 C.ar    1  UNL1        0.0001
     14 C         138.7863  136.9895  165.3429 C.ar    1  UNL1        0.0000
     15 C         137.7619  137.1093  166.4319 C.ar    1  UNL1        0.0000
     16 C         137.5346  138.4300  167.1059 C.ar    1  UNL1        0.0000
     17 C         138.3318  139.6308  166.6908 C.ar    1  UNL1        0.0001
     18 C         142.0979  139.2469  170.0289 C.3     1  UNL1        0.2525
     19 O         143.0359  140.2854  169.4890 O.3     1  UNL1       -0.4714
     20 C         138.7125  140.9252  163.0355 C.1     1  UNL1        0.1180
     21 N         137.5932  140.4314  162.1674 N.1     1  UNL1       -0.1893
     22 C         140.3070  143.3270  162.2054 C.3     1  UNL1        0.1413
     23 C         139.1602  144.2923  162.1483 C.3     1  UNL1        0.1623
     24 O         137.7659  143.7879  161.9213 O.3     1  UNL1       -0.3799
     25 H         137.7819  142.8221  161.8327 H       1  UNL1        0.2105
     26 C         139.4077  145.7619  162.3182 C.3     1  UNL1        0.1683
     27 O         140.7693  146.2525  162.7122 O.3     1  UNL1       -0.3794
     28 H         140.9752  145.9484  163.6100 H       1  UNL1        0.2105
@<TRIPOS>BOND
     1    18    19    1
     2    19     1    1
     3     1     2   ar
     4     2     3   ar
     5     3     4   ar
     6     4     5   ar
     7     5     6    2
     8     5     7   ar
     9     7    22    1
    10    22    23    1
    11    23    24    1
    12    23    26    1
    13    26    27    1
    14     7     8   ar
    15     8    20    1
    16    20    21    3
    17     8     9   ar
    18     9    12    1
    19    12    13   ar
    20    13    14   ar
    21    14    15   ar
    22    15    16   ar
    23    16    17   ar
    24     9    10   ar
    25    10    11   ar
    26    11     1   ar
    27    10     4   ar
    28    17    12   ar
    29    24    25    1
    30    27    28    1
