@<TRIPOS>MOLECULE
*****
 36 40 0 0 0
SMALL
GASTEIGER

@<TRIPOS>ATOM
      1 C         138.1734  139.9555  162.6317 C.3     1  UNL1        0.2634
      2 O         138.3278  140.6702  161.3220 O.3     1  UNL1       -0.3272
      3 C         138.1804  142.1617  161.2597 C.3     1  UNL1        0.1630
      4 C         137.8787  142.9384  162.5070 C.3     1  UNL1        0.1144
      5 C         137.7244  142.2236  163.8167 C.3     1  UNL1        0.1630
      6 O         137.8717  140.7321  163.8790 O.3     1  UNL1       -0.3272
      7 C         138.3208  138.4640  162.6941 C.3     1  UNL1        0.1712
      8 O         137.7193  137.6054  161.6212 O.3     1  UNL1       -0.3791
      9 H         137.9051  136.6726  161.8115 H       1  UNL1        0.2106
     10 C         139.0697  137.8312  163.8294 C.3     1  UNL1        0.0647
     11 C         140.0909  139.7076  167.7899 C.ar    1  UNL1        0.2250
     12 C         141.5025  140.1229  168.0813 C.ar    1  UNL1        0.0593
     13 C         142.5736  139.9127  167.0525 C.ar    1  UNL1        0.0254
     14 C         142.2332  139.2873  165.7323 C.ar    1  UNL1        0.0990
     15 N         143.3044  139.0771  164.7036 N.ar    1  UNL1       -0.2400
     16 C         142.9640  138.4517  163.3834 C.ar    1  UNL1        0.1281
     17 C         141.5524  138.0363  163.0919 C.ar    1  UNL1        0.1567
     18 F         141.2120  137.4109  161.7718 F       1  UNL1       -0.2028
     19 C         140.4812  138.2465  164.1207 C.ar    1  UNL1        0.0286
     20 C         140.8217  138.8720  165.4410 C.ar    1  UNL1        0.1002
     21 N         139.7505  139.0821  166.4698 N.ar    1  UNL1       -0.2104
     22 C         139.2656  140.8330  169.9813 C.3     1  UNL1        0.2542
     23 O         139.0197  139.9177  168.8187 O.3     1  UNL1       -0.4561
     24 N         137.7314  144.4298  162.4446 N.3     1  UNL1       -0.2894
     25 H         136.9799  144.6786  163.0879 H       1  UNL1        0.1237
     26 C         138.8969  145.3132  162.7779 C.3     1  UNL1        0.1171
     27 C         140.2967  144.7924  162.6385 C.ar    1  UNL1        0.0972
     28 C         140.9817  144.1590  163.8130 C.ar    1  UNL1        0.0288
     29 C         142.3816  143.6383  163.6735 C.ar    1  UNL1        0.0814
     30 C         143.0963  143.7510  162.3596 C.ar    1  UNL1        0.2495
     31 N         142.4112  144.3844  161.1851 N.ar    1  UNL1       -0.1100
     32 N         141.0114  144.9051  161.3245 N.ar    1  UNL1       -0.1480
     33 O         144.4961  143.2302  162.2201 O.3     1  UNL1       -0.4580
     34 C         145.1811  142.5968  163.3947 C.3     1  UNL1        0.2191
     35 C         144.4664  142.4842  164.7086 C.3     1  UNL1        0.1096
     36 S         143.0666  143.0049  164.8481 S.3     1  UNL1       -0.1051
@<TRIPOS>BOND
     1    22    23    1
     2    23    11    1
     3    11    12   ar
     4    12    13   ar
     5    13    14   ar
     6    14    15   ar
     7    15    16   ar
     8    16    17   ar
     9    17    18    1
    10    17    19   ar
    11    19    10    1
    12    10     7    1
    13     7     8    1
    14     7     1    1
    15     1     2    1
    16     2     3    1
    17     3     4    1
    18     4    24    1
    19    24    26    1
    20    26    27    1
    21    27    28   ar
    22    28    29   ar
    23    29    30   ar
    24    30    31   ar
    25    31    32   ar
    26    30    33    1
    27    33    34    1
    28    34    35    1
    29    35    36    1
    30     4     5    1
    31     5     6    1
    32    19    20   ar
    33    20    21   ar
    34    21    11   ar
    35    20    14   ar
    36     6     1    1
    37    32    27   ar
    38    36    29    1
    39     8     9    1
    40    24    25    1
@<TRIPOS>MOLECULE
*****
 36 40 0 0 0
SMALL
GASTEIGER

@<TRIPOS>ATOM
      1 C         143.0518  141.3693  165.9985 C.3     1  UNL1        0.2634
      2 O         143.2675  139.8883  166.0985 O.3     1  UNL1       -0.3272
      3 C         143.7743  139.1224  164.9126 C.3     1  UNL1        0.1630
      4 C         144.0654  139.8375  163.6265 C.3     1  UNL1        0.1144
      5 C         143.8497  141.3186  163.5265 C.3     1  UNL1        0.1630
      6 O         143.3429  142.0845  164.7125 O.3     1  UNL1       -0.3272
      7 C         142.5451  142.1352  167.1845 C.3     1  UNL1        0.1712
      8 O         143.5028  142.6048  168.2391 O.3     1  UNL1       -0.3791
      9 H         143.0154  143.0799  168.9301 H       1  UNL1        0.2106
     10 C         141.0805  142.4317  167.3158 C.3     1  UNL1        0.0647
     11 C         138.9238  143.9590  163.6736 C.ar    1  UNL1        0.2250
     12 C         137.9175  143.0904  162.9786 C.ar    1  UNL1        0.0593
     13 C         137.6301  141.7128  163.4977 C.ar    1  UNL1        0.0254
     14 C         138.3490  141.2037  164.7118 C.ar    1  UNL1        0.0990
     15 N         138.0616  139.8260  165.2309 N.ar    1  UNL1       -0.2400
     16 C         138.7805  139.3169  166.4450 C.ar    1  UNL1        0.1281
     17 C         139.7868  140.1855  167.1400 C.ar    1  UNL1        0.1567
     18 F         140.5057  139.6764  168.3540 F       1  UNL1       -0.2028
     19 C         140.0742  141.5631  166.6209 C.ar    1  UNL1        0.0286
     20 C         139.3553  142.0722  165.4067 C.ar    1  UNL1        0.1002
     21 N         139.6427  143.4499  164.8876 N.ar    1  UNL1       -0.2104
     22 C         140.1120  145.5186  161.9690 C.3     1  UNL1        0.2542
     23 O         139.2112  145.3366  163.1545 O.3     1  UNL1       -0.4561
     24 N         144.5722  139.0716  162.4406 N.3     1  UNL1       -0.2894
     25 H         145.4542  138.6433  162.7217 H       1  UNL1        0.1237
     26 C         143.7350  137.9829  161.8373 C.3     1  UNL1        0.1171
     27 C         142.2477  138.1489  161.7370 C.ar    1  UNL1        0.0972
     28 C         141.6686  139.1798  160.8140 C.ar    1  UNL1        0.0288
     29 C         140.1811  139.3458  160.7137 C.ar    1  UNL1        0.0814
     30 C         139.2728  138.4808  161.5364 C.ar    1  UNL1        0.2495
     31 N         139.8519  137.4499  162.4594 N.ar    1  UNL1       -0.1100
     32 N         141.3393  137.2839  162.5597 N.ar    1  UNL1       -0.1480
     33 O         137.7853  138.6468  161.4361 O.3     1  UNL1       -0.4580
     34 C         137.2063  139.6777  160.5131 C.3     1  UNL1        0.2191
     35 C         138.1147  140.5427  159.6905 C.3     1  UNL1        0.1096
     36 S         139.6020  140.3767  159.7908 S.3     1  UNL1       -0.1051
@<TRIPOS>BOND
     1    22    23    1
     2    23    11    1
     3    11    12   ar
     4    12    13   ar
     5    13    14   ar
     6    14    15   ar
     7    15    16   ar
     8    16    17   ar
     9    17    18    1
    10    17    19   ar
    11    19    10    1
    12    10     7    1
    13     7     8    1
    14     7     1    1
    15     1     2    1
    16     2     3    1
    17     3     4    1
    18     4    24    1
    19    24    26    1
    20    26    27    1
    21    27    28   ar
    22    28    29   ar
    23    29    30   ar
    24    30    31   ar
    25    31    32   ar
    26    30    33    1
    27    33    34    1
    28    34    35    1
    29    35    36    1
    30     4     5    1
    31     5     6    1
    32    19    20   ar
    33    20    21   ar
    34    21    11   ar
    35    20    14   ar
    36     6     1    1
    37    32    27   ar
    38    36    29    1
    39     8     9    1
    40    24    25    1
@<TRIPOS>MOLECULE
*****
 36 40 0 0 0
SMALL
GASTEIGER

@<TRIPOS>ATOM
      1 C         138.1687  139.9382  162.6677 C.3     1  UNL1        0.2634
      2 O         137.7877  140.7263  163.8858 O.3     1  UNL1       -0.3272
      3 C         137.6390  142.2163  163.7988 C.3     1  UNL1        0.1630
      4 C         137.8713  142.9183  162.4936 C.3     1  UNL1        0.1144
      5 C         138.2523  142.1302  161.2756 C.3     1  UNL1        0.1630
      6 O         138.4010  140.6401  161.3626 O.3     1  UNL1       -0.3272
      7 C         138.3175  138.4481  162.7547 C.3     1  UNL1        0.1712
      8 O         137.8155  137.5780  161.6407 O.3     1  UNL1       -0.3791
      9 H         137.9887  136.6477  161.8540 H       1  UNL1        0.2106
     10 C         138.9682  137.8282  163.9556 C.3     1  UNL1        0.0647
     11 C         142.8006  137.9038  161.5983 C.ar    1  UNL1        0.2250
     12 C         144.0319  138.5247  162.1884 C.ar    1  UNL1        0.0593
     13 C         143.9858  139.1204  163.5643 C.ar    1  UNL1        0.0254
     14 C         142.7084  139.0952  164.3500 C.ar    1  UNL1        0.0990
     15 N         142.6623  139.6908  165.7259 N.ar    1  UNL1       -0.2400
     16 C         141.3849  139.6656  166.5117 C.ar    1  UNL1        0.1281
     17 C         140.1534  139.0447  165.9216 C.ar    1  UNL1        0.1567
     18 F         138.8760  139.0195  166.7074 F       1  UNL1       -0.2028
     19 C         140.1995  138.4490  164.5457 C.ar    1  UNL1        0.0286
     20 C         141.4771  138.4743  163.7599 C.ar    1  UNL1        0.1002
     21 N         141.5231  137.8786  162.3841 N.ar    1  UNL1       -0.2104
     22 C         142.7837  138.1988  159.0171 C.3     1  UNL1        0.2542
     23 O         142.8467  137.3082  160.2224 O.3     1  UNL1       -0.4561
     24 N         137.7225  144.4084  162.4067 N.3     1  UNL1       -0.2894
     25 H         136.9624  144.6657  163.0363 H       1  UNL1        0.1237
     26 C         138.8823  145.2987  162.7416 C.3     1  UNL1        0.1171
     27 C         140.2856  144.7894  162.5953 C.ar    1  UNL1        0.0972
     28 C         141.0040  144.2189  163.7821 C.ar    1  UNL1        0.0288
     29 C         142.4073  143.7095  163.6357 C.ar    1  UNL1        0.0814
     30 C         143.0921  143.7707  162.3026 C.ar    1  UNL1        0.2495
     31 N         142.3738  144.3413  161.1158 N.ar    1  UNL1       -0.1100
     32 N         140.9705  144.8506  161.2621 N.ar    1  UNL1       -0.1480
     33 O         144.4955  143.2614  162.1562 O.3     1  UNL1       -0.4580
     34 C         145.2138  142.6909  163.3430 C.3     1  UNL1        0.2191
     35 C         144.5289  142.6297  164.6761 C.3     1  UNL1        0.1096
     36 S         143.1257  143.1390  164.8225 S.3     1  UNL1       -0.1051
@<TRIPOS>BOND
     1    22    23    1
     2    23    11    1
     3    11    12   ar
     4    12    13   ar
     5    13    14   ar
     6    14    15   ar
     7    15    16   ar
     8    16    17   ar
     9    17    18    1
    10    17    19   ar
    11    19    10    1
    12    10     7    1
    13     7     8    1
    14     7     1    1
    15     1     2    1
    16     2     3    1
    17     3     4    1
    18     4    24    1
    19    24    26    1
    20    26    27    1
    21    27    28   ar
    22    28    29   ar
    23    29    30   ar
    24    30    31   ar
    25    31    32   ar
    26    30    33    1
    27    33    34    1
    28    34    35    1
    29    35    36    1
    30     4     5    1
    31     5     6    1
    32    19    20   ar
    33    20    21   ar
    34    21    11   ar
    35    20    14   ar
    36     6     1    1
    37    32    27   ar
    38    36    29    1
    39     8     9    1
    40    24    25    1
@<TRIPOS>MOLECULE
*****
 36 40 0 0 0
SMALL
GASTEIGER

@<TRIPOS>ATOM
      1 C         144.3613  140.6303  163.3239 C.3     1  UNL1        0.2634
      2 O         143.8858  139.6642  164.3682 O.3     1  UNL1       -0.3272
      3 C         142.9300  138.5693  163.9975 C.3     1  UNL1        0.1630
      4 C         142.4496  138.4404  162.5823 C.3     1  UNL1        0.1144
      5 C         142.9251  139.4064  161.5379 C.3     1  UNL1        0.1630
      6 O         143.8810  140.5014  161.9087 O.3     1  UNL1       -0.3272
      7 C         145.3171  141.7252  163.6946 C.3     1  UNL1        0.1712
      8 O         146.6839  141.7683  163.0781 O.3     1  UNL1       -0.3791
      9 H         147.1703  142.5332  163.4232 H       1  UNL1        0.2106
     10 C         144.9063  142.7770  164.6820 C.3     1  UNL1        0.0647
     11 C         142.3695  140.9758  167.9332 C.ar    1  UNL1        0.2250
     12 C         140.9259  141.3630  168.0593 C.ar    1  UNL1        0.0593
     13 C         140.3278  142.3506  167.1018 C.ar    1  UNL1        0.0254
     14 C         141.1734  142.9510  166.0181 C.ar    1  UNL1        0.0990
     15 N         140.5753  143.9387  165.0605 N.ar    1  UNL1       -0.2400
     16 C         141.4209  144.5391  163.9768 C.ar    1  UNL1        0.1281
     17 C         142.8646  144.1519  163.8506 C.ar    1  UNL1        0.1567
     18 F         143.7101  144.7523  162.7669 F       1  UNL1       -0.2028
     19 C         143.4626  143.1642  164.8081 C.ar    1  UNL1        0.0286
     20 C         142.6170  142.5638  165.8919 C.ar    1  UNL1        0.1002
     21 N         143.2151  141.5762  166.8495 N.ar    1  UNL1       -0.2104
     22 C         142.6089  140.0430  170.3462 C.3     1  UNL1        0.2542
     23 O         142.9676  139.9882  168.8907 O.3     1  UNL1       -0.4561
     24 N         141.4938  137.3455  162.2115 N.3     1  UNL1       -0.2894
     25 H         141.5514  136.6423  162.9482 H       1  UNL1        0.1237
     26 C         140.0383  137.6535  162.0199 C.3     1  UNL1        0.1171
     27 C         139.4292  138.8470  162.6940 C.ar    1  UNL1        0.0972
     28 C         139.2767  140.1362  161.9425 C.ar    1  UNL1        0.0288
     29 C         138.6675  141.3297  162.6167 C.ar    1  UNL1        0.0814
     30 C         138.2108  141.2340  164.0423 C.ar    1  UNL1        0.2495
     31 N         138.3633  139.9448  164.7937 N.ar    1  UNL1       -0.1100
     32 N         138.9724  138.7513  164.1196 N.ar    1  UNL1       -0.1480
     33 O         137.6016  142.4275  164.7164 O.3     1  UNL1       -0.4580
     34 C         137.4492  143.7168  163.9650 C.3     1  UNL1        0.2191
     35 C         137.9059  143.8124  162.5394 C.3     1  UNL1        0.1096
     36 S         138.5150  142.6190  161.8653 S.3     1  UNL1       -0.1051
@<TRIPOS>BOND
     1    22    23    1
     2    23    11    1
     3    11    12   ar
     4    12    13   ar
     5    13    14   ar
     6    14    15   ar
     7    15    16   ar
     8    16    17   ar
     9    17    18    1
    10    17    19   ar
    11    19    10    1
    12    10     7    1
    13     7     8    1
    14     7     1    1
    15     1     2    1
    16     2     3    1
    17     3     4    1
    18     4    24    1
    19    24    26    1
    20    26    27    1
    21    27    28   ar
    22    28    29   ar
    23    29    30   ar
    24    30    31   ar
    25    31    32   ar
    26    30    33    1
    27    33    34    1
    28    34    35    1
    29    35    36    1
    30     4     5    1
    31     5     6    1
    32    19    20   ar
    33    20    21   ar
    34    21    11   ar
    35    20    14   ar
    36     6     1    1
    37    32    27   ar
    38    36    29    1
    39     8     9    1
    40    24    25    1
@<TRIPOS>MOLECULE
*****
 36 40 0 0 0
SMALL
GASTEIGER

@<TRIPOS>ATOM
      1 C         143.8514  142.5843  162.2297 C.3     1  UNL1        0.2634
      2 O         143.7954  143.7289  163.1976 O.3     1  UNL1       -0.3272
      3 C         142.7608  144.8020  163.0310 C.3     1  UNL1        0.1630
      4 C         141.7821  144.7306  161.8965 C.3     1  UNL1        0.1144
      5 C         141.8380  143.5861  160.9286 C.3     1  UNL1        0.1630
      6 O         142.8728  142.5129  161.0952 O.3     1  UNL1       -0.3272
      7 C         144.8861  141.5111  162.3963 C.3     1  UNL1        0.1712
      8 O         146.2788  141.8715  162.8210 O.3     1  UNL1       -0.3791
      9 H         146.8172  141.0668  162.8803 H       1  UNL1        0.2106
     10 C         144.5280  140.0775  162.1381 C.3     1  UNL1        0.0647
     11 C         140.4919  138.6730  160.7285 C.ar    1  UNL1        0.2250
     12 C         139.5793  137.9464  161.6715 C.ar    1  UNL1        0.0593
     13 C         140.0120  137.6880  163.0843 C.ar    1  UNL1        0.0254
     14 C         141.3573  138.1562  163.5541 C.ar    1  UNL1        0.0990
     15 N         141.7900  137.8978  164.9669 N.ar    1  UNL1       -0.2400
     16 C         143.1353  138.3659  165.4368 C.ar    1  UNL1        0.1281
     17 C         144.0481  139.0925  164.4939 C.ar    1  UNL1        0.1567
     18 F         145.3934  139.5607  164.9637 F       1  UNL1       -0.2028
     19 C         143.6154  139.3509  163.0811 C.ar    1  UNL1        0.0286
     20 C         142.2699  138.8827  162.6112 C.ar    1  UNL1        0.1002
     21 N         141.8372  139.1411  161.1984 N.ar    1  UNL1       -0.2104
     22 C         140.9750  138.5928  158.1770 C.3     1  UNL1        0.2542
     23 O         140.0592  138.9314  159.3157 O.3     1  UNL1       -0.4561
     24 N         140.7474  145.8038  161.7299 N.3     1  UNL1       -0.2894
     25 H         140.6337  145.9500  160.7268 H       1  UNL1        0.1237
     26 C         139.3723  145.6146  162.2985 C.3     1  UNL1        0.1171
     27 C         138.9426  144.2636  162.7882 C.ar    1  UNL1        0.0972
     28 C         139.5320  143.6996  164.0470 C.ar    1  UNL1        0.0288
     29 C         139.1022  142.3484  164.5366 C.ar    1  UNL1        0.0814
     30 C         138.0829  141.5613  163.7676 C.ar    1  UNL1        0.2495
     31 N         137.4935  142.1253  162.5088 N.ar    1  UNL1       -0.1100
     32 N         137.9233  143.4764  162.0191 N.ar    1  UNL1       -0.1480
     33 O         137.6531  140.2102  164.2572 O.3     1  UNL1       -0.4580
     34 C         138.2426  139.6462  165.5160 C.3     1  UNL1        0.2191
     35 C         139.2619  140.4334  166.2851 C.3     1  UNL1        0.1096
     36 S         139.6916  141.7845  165.7954 S.3     1  UNL1       -0.1051
@<TRIPOS>BOND
     1    22    23    1
     2    23    11    1
     3    11    12   ar
     4    12    13   ar
     5    13    14   ar
     6    14    15   ar
     7    15    16   ar
     8    16    17   ar
     9    17    18    1
    10    17    19   ar
    11    19    10    1
    12    10     7    1
    13     7     8    1
    14     7     1    1
    15     1     2    1
    16     2     3    1
    17     3     4    1
    18     4    24    1
    19    24    26    1
    20    26    27    1
    21    27    28   ar
    22    28    29   ar
    23    29    30   ar
    24    30    31   ar
    25    31    32   ar
    26    30    33    1
    27    33    34    1
    28    34    35    1
    29    35    36    1
    30     4     5    1
    31     5     6    1
    32    19    20   ar
    33    20    21   ar
    34    21    11   ar
    35    20    14   ar
    36     6     1    1
    37    32    27   ar
    38    36    29    1
    39     8     9    1
    40    24    25    1
@<TRIPOS>MOLECULE
*****
 36 40 0 0 0
SMALL
GASTEIGER

@<TRIPOS>ATOM
      1 C         144.0663  142.7039  163.3283 C.3     1  UNL1        0.2634
      2 O         143.6588  143.0655  161.9308 O.3     1  UNL1       -0.3272
      3 C         142.6168  144.1200  161.7024 C.3     1  UNL1        0.1630
      4 C         141.9823  144.8131  162.8717 C.3     1  UNL1        0.1144
      5 C         142.3898  144.4515  164.2693 C.3     1  UNL1        0.1630
      6 O         143.4318  143.3969  164.4976 O.3     1  UNL1       -0.3272
      7 C         145.1082  141.6493  163.5566 C.3     1  UNL1        0.1712
      8 O         146.4835  141.8168  162.9815 O.3     1  UNL1       -0.3791
      9 H         147.0294  141.0515  163.2207 H       1  UNL1        0.2106
     10 C         144.7750  140.4272  164.3601 C.3     1  UNL1        0.0647
     11 C         141.4792  140.8005  167.4012 C.ar    1  UNL1        0.2250
     12 C         140.1746  140.0928  167.1839 C.ar    1  UNL1        0.0593
     13 C         139.9687  139.2607  165.9530 C.ar    1  UNL1        0.0254
     14 C         141.0672  139.1362  164.9393 C.ar    1  UNL1        0.0990
     15 N         140.8613  138.3041  163.7084 N.ar    1  UNL1       -0.2400
     16 C         141.9598  138.1797  162.6948 C.ar    1  UNL1        0.1281
     17 C         143.2645  138.8874  162.9120 C.ar    1  UNL1        0.1567
     18 F         144.3631  138.7630  161.8983 F       1  UNL1       -0.2028
     19 C         143.4705  139.7195  164.1429 C.ar    1  UNL1        0.0286
     20 C         142.3718  139.8439  165.1566 C.ar    1  UNL1        0.1002
     21 N         142.5778  140.6761  166.3875 N.ar    1  UNL1       -0.2104
     22 C         142.9950  142.3281  168.8567 C.3     1  UNL1        0.2542
     23 O         141.6852  141.6326  168.6321 O.3     1  UNL1       -0.4561
     24 N         140.9403  145.8676  162.6434 N.3     1  UNL1       -0.2894
     25 H         141.1724  146.3249  161.7617 H       1  UNL1        0.1237
     26 C         139.4917  145.4862  162.5652 C.3     1  UNL1        0.1171
     27 C         139.0881  144.0462  162.6803 C.ar    1  UNL1        0.0972
     28 C         138.9646  143.2010  161.4473 C.ar    1  UNL1        0.0288
     29 C         138.5609  141.7609  161.5624 C.ar    1  UNL1        0.0814
     30 C         138.2807  141.1660  162.9106 C.ar    1  UNL1        0.2495
     31 N         138.4042  142.0112  164.1436 N.ar    1  UNL1       -0.1100
     32 N         138.8079  143.4512  164.0285 N.ar    1  UNL1       -0.1480
     33 O         137.8770  139.7259  163.0257 O.3     1  UNL1       -0.4580
     34 C         137.7535  138.8807  161.7927 C.3     1  UNL1        0.2191
     35 C         138.0337  139.4757  160.4445 C.3     1  UNL1        0.1096
     36 S         138.4374  140.9157  160.3294 S.3     1  UNL1       -0.1051
@<TRIPOS>BOND
     1    22    23    1
     2    23    11    1
     3    11    12   ar
     4    12    13   ar
     5    13    14   ar
     6    14    15   ar
     7    15    16   ar
     8    16    17   ar
     9    17    18    1
    10    17    19   ar
    11    19    10    1
    12    10     7    1
    13     7     8    1
    14     7     1    1
    15     1     2    1
    16     2     3    1
    17     3     4    1
    18     4    24    1
    19    24    26    1
    20    26    27    1
    21    27    28   ar
    22    28    29   ar
    23    29    30   ar
    24    30    31   ar
    25    31    32   ar
    26    30    33    1
    27    33    34    1
    28    34    35    1
    29    35    36    1
    30     4     5    1
    31     5     6    1
    32    19    20   ar
    33    20    21   ar
    34    21    11   ar
    35    20    14   ar
    36     6     1    1
    37    32    27   ar
    38    36    29    1
    39     8     9    1
    40    24    25    1
@<TRIPOS>MOLECULE
*****
 36 40 0 0 0
SMALL
GASTEIGER

@<TRIPOS>ATOM
      1 C         142.8734  143.8565  162.6232 C.3     1  UNL1        0.2634
      2 O         142.2301  144.3261  163.8942 O.3     1  UNL1       -0.3272
      3 C         140.8032  144.7886  163.8862 C.3     1  UNL1        0.1630
      4 C         140.0196  144.7814  162.6071 C.3     1  UNL1        0.1144
      5 C         140.6629  144.3118  161.3361 C.3     1  UNL1        0.1630
      6 O         142.0899  143.8493  161.3441 O.3     1  UNL1       -0.3272
      7 C         144.3003  143.3940  162.6312 C.3     1  UNL1        0.1712
      8 O         145.2109  143.7512  161.4939 O.3     1  UNL1       -0.3791
      9 H         146.0912  143.3769  161.6548 H       1  UNL1        0.2106
     10 C         144.8166  142.5743  163.7764 C.3     1  UNL1        0.0647
     11 C         143.6524  139.0054  161.2950 C.ar    1  UNL1        0.2250
     12 C         142.7981  137.9252  161.8894 C.ar    1  UNL1        0.0593
     13 C         142.3319  138.0346  163.3109 C.ar    1  UNL1        0.0254
     14 C         142.7200  139.2242  164.1380 C.ar    1  UNL1        0.0990
     15 N         142.2538  139.3336  165.5595 N.ar    1  UNL1       -0.2400
     16 C         142.6418  140.5232  166.3867 C.ar    1  UNL1        0.1281
     17 C         143.4962  141.6035  165.7923 C.ar    1  UNL1        0.1567
     18 F         143.8842  142.7931  166.6194 F       1  UNL1       -0.2028
     19 C         143.9624  141.4941  164.3708 C.ar    1  UNL1        0.0286
     20 C         143.5742  140.3044  163.5437 C.ar    1  UNL1        0.1002
     21 N         144.0404  140.1950  162.1221 N.ar    1  UNL1       -0.2104
     22 C         143.3832  139.6203  158.7852 C.3     1  UNL1        0.2542
     23 O         144.1186  138.8960  159.8735 O.3     1  UNL1       -0.4561
     24 N         138.5927  145.2439  162.5991 N.3     1  UNL1       -0.2894
     25 H         138.3723  145.5023  161.6373 H       1  UNL1        0.1237
     26 C         137.5029  144.3221  163.0603 C.3     1  UNL1        0.1171
     27 C         137.7331  142.8401  163.0814 C.ar    1  UNL1        0.0972
     28 C         138.0507  142.1487  164.3741 C.ar    1  UNL1        0.0288
     29 C         138.2808  140.6665  164.3951 C.ar    1  UNL1        0.0814
     30 C         138.1934  139.8759  163.1234 C.ar    1  UNL1        0.2495
     31 N         137.8758  140.5673  161.8307 N.ar    1  UNL1       -0.1100
     32 N         137.6456  142.0493  161.8097 N.ar    1  UNL1       -0.1480
     33 O         138.4236  138.3937  163.1444 O.3     1  UNL1       -0.4580
     34 C         138.7411  137.7023  164.4371 C.3     1  UNL1        0.2191
     35 C         138.8286  138.4931  165.7088 C.3     1  UNL1        0.1096
     36 S         138.5984  139.9751  165.6878 S.3     1  UNL1       -0.1051
@<TRIPOS>BOND
     1    22    23    1
     2    23    11    1
     3    11    12   ar
     4    12    13   ar
     5    13    14   ar
     6    14    15   ar
     7    15    16   ar
     8    16    17   ar
     9    17    18    1
    10    17    19   ar
    11    19    10    1
    12    10     7    1
    13     7     8    1
    14     7     1    1
    15     1     2    1
    16     2     3    1
    17     3     4    1
    18     4    24    1
    19    24    26    1
    20    26    27    1
    21    27    28   ar
    22    28    29   ar
    23    29    30   ar
    24    30    31   ar
    25    31    32   ar
    26    30    33    1
    27    33    34    1
    28    34    35    1
    29    35    36    1
    30     4     5    1
    31     5     6    1
    32    19    20   ar
    33    20    21   ar
    34    21    11   ar
    35    20    14   ar
    36     6     1    1
    37    32    27   ar
    38    36    29    1
    39     8     9    1
    40    24    25    1
@<TRIPOS>MOLECULE
*****
 36 40 0 0 0
SMALL
GASTEIGER

@<TRIPOS>ATOM
      1 C         143.4834  141.9863  163.8621 C.3     1  UNL1        0.2634
      2 O         142.4966  142.5139  164.8610 O.3     1  UNL1       -0.3272
      3 C         141.7820  143.8064  164.5987 C.3     1  UNL1        0.1630
      4 C         142.0541  144.5713  163.3374 C.3     1  UNL1        0.1144
      5 C         143.0409  144.0437  162.3384 C.3     1  UNL1        0.1630
      6 O         143.7555  142.7512  162.6008 O.3     1  UNL1       -0.3272
      7 C         144.1980  140.6939  164.1244 C.3     1  UNL1        0.1712
      8 O         145.5440  140.4433  163.5116 O.3     1  UNL1       -0.3791
      9 H         145.8635  139.5676  163.7799 H       1  UNL1        0.2106
     10 C         143.5666  139.6519  164.9995 C.3     1  UNL1        0.0647
     11 C         139.7932  140.0434  167.4198 C.ar    1  UNL1        0.2250
     12 C         138.5409  139.3483  166.9742 C.ar    1  UNL1        0.0593
     13 C         138.5464  138.5226  165.7219 C.ar    1  UNL1        0.0254
     14 C         139.8042  138.3921  164.9151 C.ar    1  UNL1        0.0990
     15 N         139.8097  137.5665  163.6628 N.ar    1  UNL1       -0.2400
     16 C         141.0675  137.4360  162.8560 C.ar    1  UNL1        0.1281
     17 C         142.3199  138.1312  163.3016 C.ar    1  UNL1        0.1567
     18 F         143.5777  138.0007  162.4948 F       1  UNL1       -0.2028
     19 C         142.3144  138.9568  164.5539 C.ar    1  UNL1        0.0286
     20 C         141.0565  139.0873  165.3607 C.ar    1  UNL1        0.1002
     21 N         141.0510  139.9129  166.6130 N.ar    1  UNL1       -0.2104
     22 C         139.8074  140.1975  170.0132 C.3     1  UNL1        0.2542
     23 O         139.7877  140.8690  168.6721 O.3     1  UNL1       -0.4561
     24 N         141.3395  145.8637  163.0750 N.3     1  UNL1       -0.2894
     25 H         141.9500  146.4218  162.4782 H       1  UNL1        0.1237
     26 C         139.9880  145.8548  162.4244 C.3     1  UNL1        0.1171
     27 C         139.5351  144.6511  161.6525 C.ar    1  UNL1        0.0972
     28 C         138.9701  143.4650  162.3762 C.ar    1  UNL1        0.0288
     29 C         138.5172  142.2612  161.6042 C.ar    1  UNL1        0.0814
     30 C         138.6294  142.2437  160.1085 C.ar    1  UNL1        0.2495
     31 N         139.1944  143.4298  159.3848 N.ar    1  UNL1       -0.1100
     32 N         139.6473  144.6335  160.1567 N.ar    1  UNL1       -0.1480
     33 O         138.1765  141.0399  159.3365 O.3     1  UNL1       -0.4580
     34 C         137.6114  139.8538  160.0602 C.3     1  UNL1        0.2191
     35 C         137.4992  139.8714  161.5560 C.3     1  UNL1        0.1096
     36 S         137.9521  141.0751  162.3279 S.3     1  UNL1       -0.1051
@<TRIPOS>BOND
     1    22    23    1
     2    23    11    1
     3    11    12   ar
     4    12    13   ar
     5    13    14   ar
     6    14    15   ar
     7    15    16   ar
     8    16    17   ar
     9    17    18    1
    10    17    19   ar
    11    19    10    1
    12    10     7    1
    13     7     8    1
    14     7     1    1
    15     1     2    1
    16     2     3    1
    17     3     4    1
    18     4    24    1
    19    24    26    1
    20    26    27    1
    21    27    28   ar
    22    28    29   ar
    23    29    30   ar
    24    30    31   ar
    25    31    32   ar
    26    30    33    1
    27    33    34    1
    28    34    35    1
    29    35    36    1
    30     4     5    1
    31     5     6    1
    32    19    20   ar
    33    20    21   ar
    34    21    11   ar
    35    20    14   ar
    36     6     1    1
    37    32    27   ar
    38    36    29    1
    39     8     9    1
    40    24    25    1
@<TRIPOS>MOLECULE
*****
 36 40 0 0 0
SMALL
GASTEIGER

@<TRIPOS>ATOM
      1 C         139.6549  143.6253  163.5733 C.3     1  UNL1        0.2634
      2 O         140.1121  142.7990  164.7387 O.3     1  UNL1       -0.3272
      3 C         141.5515  142.8275  165.1595 C.3     1  UNL1        0.1630
      4 C         142.5339  143.6823  164.4149 C.3     1  UNL1        0.1144
      5 C         142.0766  144.5086  163.2496 C.3     1  UNL1        0.1630
      6 O         140.6371  144.4801  162.8288 O.3     1  UNL1       -0.3272
      7 C         138.2154  143.5968  163.1525 C.3     1  UNL1        0.1712
      8 O         137.5803  144.8239  162.5686 O.3     1  UNL1       -0.3791
      9 H         136.6536  144.6364  162.3521 H       1  UNL1        0.2106
     10 C         137.4110  142.3413  163.3156 C.3     1  UNL1        0.0647
     11 C         138.4213  138.8495  165.9683 C.ar    1  UNL1        0.2250
     12 C         138.9059  137.5647  165.3647 C.ar    1  UNL1        0.0593
     13 C         139.0537  137.4437  163.8769 C.ar    1  UNL1        0.0254
     14 C         138.7169  138.6076  162.9927 C.ar    1  UNL1        0.0990
     15 N         138.8647  138.4866  161.5049 N.ar    1  UNL1       -0.2400
     16 C         138.5279  139.6505  160.6207 C.ar    1  UNL1        0.1281
     17 C         138.0433  140.9355  161.2243 C.ar    1  UNL1        0.1567
     18 F         137.7066  142.0993  160.3400 F       1  UNL1       -0.2028
     19 C         137.8955  141.0564  162.7121 C.ar    1  UNL1        0.0286
     20 C         138.2323  139.8924  163.5963 C.ar    1  UNL1        0.1002
     21 N         138.0846  140.0134  165.0841 N.ar    1  UNL1       -0.2104
     22 C         139.2040  139.8541  168.2328 C.3     1  UNL1        0.2542
     23 O         138.2736  138.9705  167.4561 O.3     1  UNL1       -0.4561
     24 N         143.9733  143.7108  164.8357 N.3     1  UNL1       -0.2894
     25 H         143.9859  143.6005  165.8497 H       1  UNL1        0.1237
     26 C         144.9375  142.7058  164.2788 C.3     1  UNL1        0.1171
     27 C         144.5855  141.9342  163.0416 C.ar    1  UNL1        0.0972
     28 C         144.0883  140.5234  163.1536 C.ar    1  UNL1        0.0288
     29 C         143.7363  139.7519  161.9163 C.ar    1  UNL1        0.0814
     30 C         143.8814  140.3911  160.5671 C.ar    1  UNL1        0.2495
     31 N         144.3786  141.8018  160.4552 N.ar    1  UNL1       -0.1100
     32 N         144.7307  142.5734  161.6924 N.ar    1  UNL1       -0.1480
     33 O         143.5294  139.6195  159.3298 O.3     1  UNL1       -0.4580
     34 C         143.0322  138.2088  159.4418 C.3     1  UNL1        0.2191
     35 C         142.8870  137.5696  160.7911 C.3     1  UNL1        0.1096
     36 S         143.2391  138.3411  162.0283 S.3     1  UNL1       -0.1051
@<TRIPOS>BOND
     1    22    23    1
     2    23    11    1
     3    11    12   ar
     4    12    13   ar
     5    13    14   ar
     6    14    15   ar
     7    15    16   ar
     8    16    17   ar
     9    17    18    1
    10    17    19   ar
    11    19    10    1
    12    10     7    1
    13     7     8    1
    14     7     1    1
    15     1     2    1
    16     2     3    1
    17     3     4    1
    18     4    24    1
    19    24    26    1
    20    26    27    1
    21    27    28   ar
    22    28    29   ar
    23    29    30   ar
    24    30    31   ar
    25    31    32   ar
    26    30    33    1
    27    33    34    1
    28    34    35    1
    29    35    36    1
    30     4     5    1
    31     5     6    1
    32    19    20   ar
    33    20    21   ar
    34    21    11   ar
    35    20    14   ar
    36     6     1    1
    37    32    27   ar
    38    36    29    1
    39     8     9    1
    40    24    25    1
