@<TRIPOS>MOLECULE
*****
 13 14 0 0 0
SMALL
GASTEIGER

@<TRIPOS>ATOM
      1 C         140.4197  142.5398  169.3625 C.2     1  UNL1        0.0636
      2 C         139.7814  141.4484  170.1696 C.2     1  UNL1       -0.0213
      3 C         139.2692  140.2138  169.4889 C.3     1  UNL1        0.0419
      4 C         139.4708  140.2238  167.9927 C.3     1  UNL1        0.0622
      5 C         139.7959  140.5026  166.5551 C.3     1  UNL1        0.0180
      6 C         140.4601  141.8455  166.4822 C.3     1  UNL1        0.0221
      7 C         140.5456  142.3967  167.8746 C.3     1  UNL1        0.0862
      8 N         139.9342  141.3944  168.8082 N.3     1  UNL1       -0.2699
      9 C         139.7838  141.2955  169.5848 C.3     1  UNL1        0.0898
     10 C         140.9319  143.7744  170.0431 C.2     1  UNL1        0.3382
     11 O         140.0101  144.9314  170.2912 O.2     1  UNL1       -0.2452
     12 C         143.2976  142.7108  170.1929 C.3     1  UNL1        0.2559
     13 O         142.3662  143.8520  170.4758 O.3     1  UNL1       -0.4415
@<TRIPOS>BOND
     1    12    13    1
     2    13    10    1
     3    10    11    2
     4    10     1    1
     5     1     2    2
     6     2     3    1
     7     3     4    1
     8     4     5    1
     9     5     6    1
    10     6     7    1
    11     7     8    1
    12     8     9    1
    13     7     1    1
    14     8     4    1
@<TRIPOS>MOLECULE
*****
 13 14 0 0 0
SMALL
GASTEIGER

@<TRIPOS>ATOM
      1 C         138.3044  138.7883  165.7911 C.2     1  UNL1        0.0636
      2 C         138.9620  137.6313  165.0990 C.2     1  UNL1       -0.0213
      3 C         139.3667  137.7500  163.6596 C.3     1  UNL1        0.0419
      4 C         139.0439  139.0941  163.0525 C.3     1  UNL1        0.0622
      5 C         138.6139  140.4926  162.7219 C.3     1  UNL1        0.0180
      6 C         138.0005  141.0920  163.9526 C.3     1  UNL1        0.0221
      7 C         138.0515  140.0640  165.0437 C.3     1  UNL1        0.0862
      8 N         138.6963  138.8292  164.4874 N.3     1  UNL1       -0.2699
      9 C         138.9056  138.0943  164.7146 C.3     1  UNL1        0.0898
     10 C         137.8996  138.6695  167.2306 C.2     1  UNL1        0.3382
     11 O         136.7493  137.7873  167.6159 O.2     1  UNL1       -0.2452
     12 C         139.9999  140.0016  167.9820 C.3     1  UNL1        0.2559
     13 O         138.6453  139.4330  168.2848 O.3     1  UNL1       -0.4415
@<TRIPOS>BOND
     1    12    13    1
     2    13    10    1
     3    10    11    2
     4    10     1    1
     5     1     2    2
     6     2     3    1
     7     3     4    1
     8     4     5    1
     9     5     6    1
    10     6     7    1
    11     7     8    1
    12     8     9    1
    13     7     1    1
    14     8     4    1
@<TRIPOS>MOLECULE
*****
 13 14 0 0 0
SMALL
GASTEIGER

@<TRIPOS>ATOM
      1 C         139.7299  140.0789  168.6606 C.2     1  UNL1        0.0636
      2 C         141.1189  140.3035  168.1407 C.2     1  UNL1       -0.0213
      3 C         141.4549  139.9506  166.7221 C.3     1  UNL1        0.0419
      4 C         140.2883  139.3816  165.9510 C.3     1  UNL1        0.0622
      5 C         138.9791  138.8552  165.4420 C.3     1  UNL1        0.0180
      6 C         137.9833  138.9293  166.5613 C.3     1  UNL1        0.0221
      7 C         138.6769  139.5014  167.7619 C.3     1  UNL1        0.0862
      8 N         140.1016  139.7809  167.3847 N.3     1  UNL1       -0.2699
      9 C         140.7726  140.0692  167.7043 C.3     1  UNL1        0.0898
     10 C         139.3939  140.4318  170.0793 C.2     1  UNL1        0.3382
     11 O         139.4689  139.3845  171.1506 O.2     1  UNL1       -0.2452
     12 C         140.0008  142.9338  170.4283 C.3     1  UNL1        0.2559
     13 O         138.9829  141.8320  170.4267 O.3     1  UNL1       -0.4415
@<TRIPOS>BOND
     1    12    13    1
     2    13    10    1
     3    10    11    2
     4    10     1    1
     5     1     2    2
     6     2     3    1
     7     3     4    1
     8     4     5    1
     9     5     6    1
    10     6     7    1
    11     7     8    1
    12     8     9    1
    13     7     1    1
    14     8     4    1
@<TRIPOS>MOLECULE
*****
 13 14 0 0 0
SMALL
GASTEIGER

@<TRIPOS>ATOM
      1 C         140.0122  140.0979  168.8001 C.2     1  UNL1        0.0636
      2 C         139.0605  139.9677  167.6479 C.2     1  UNL1       -0.0213
      3 C         139.5788  139.6292  166.2816 C.3     1  UNL1        0.0419
      4 C         141.0773  139.4517  166.2333 C.3     1  UNL1        0.0622
      5 C         142.5526  139.3372  166.4789 C.3     1  UNL1        0.0180
      6 C         142.8028  139.6078  167.9329 C.3     1  UNL1        0.0221
      7 C         141.4821  139.8895  168.5859 C.3     1  UNL1        0.0862
      8 N         140.4157  139.7931  167.5355 N.3     1  UNL1       -0.2699
      9 C         139.6255  139.8657  167.4589 C.3     1  UNL1        0.0898
     10 C         139.4939  140.4363  170.1664 C.2     1  UNL1        0.3382
     11 O         139.3146  139.3544  171.1898 O.2     1  UNL1       -0.2452
     12 C         140.0927  142.9643  170.1297 C.3     1  UNL1        0.2559
     13 O         139.1549  141.8568  170.5093 O.3     1  UNL1       -0.4415
@<TRIPOS>BOND
     1    12    13    1
     2    13    10    1
     3    10    11    2
     4    10     1    1
     5     1     2    2
     6     2     3    1
     7     3     4    1
     8     4     5    1
     9     5     6    1
    10     6     7    1
    11     7     8    1
    12     8     9    1
    13     7     1    1
    14     8     4    1
@<TRIPOS>MOLECULE
*****
 13 14 0 0 0
SMALL
GASTEIGER

@<TRIPOS>ATOM
      1 C         139.6044  140.4576  168.2042 C.2     1  UNL1        0.0636
      2 C         140.3375  141.5256  167.4478 C.2     1  UNL1       -0.0213
      3 C         140.2368  141.5890  165.9526 C.3     1  UNL1        0.0419
      4 C         139.3614  140.5100  165.3620 C.3     1  UNL1        0.0622
      5 C         138.4557  139.3529  165.0610 C.3     1  UNL1        0.0180
      6 C         138.0906  138.6997  166.3610 C.3     1  UNL1        0.0221
      7 C         138.7707  139.4532  167.4654 C.3     1  UNL1        0.0862
      8 N         139.5561  140.5720  166.8480 N.3     1  UNL1       -0.2699
      9 C         140.0330  141.1740  167.0618 C.3     1  UNL1        0.0898
     10 C         139.7051  140.3942  169.6995 C.2     1  UNL1        0.3382
     11 O         138.8723  141.3099  170.5468 O.2     1  UNL1       -0.2452
     12 C         142.0714  139.3420  169.9092 C.3     1  UNL1        0.2559
     13 O         140.6387  139.4150  170.3475 O.3     1  UNL1       -0.4415
@<TRIPOS>BOND
     1    12    13    1
     2    13    10    1
     3    10    11    2
     4    10     1    1
     5     1     2    2
     6     2     3    1
     7     3     4    1
     8     4     5    1
     9     5     6    1
    10     6     7    1
    11     7     8    1
    12     8     9    1
    13     7     1    1
    14     8     4    1
@<TRIPOS>MOLECULE
*****
 13 14 0 0 0
SMALL
GASTEIGER

@<TRIPOS>ATOM
      1 C         142.8099  141.8364  169.2872 C.2     1  UNL1        0.0636
      2 C         142.5760  140.4876  169.9004 C.2     1  UNL1       -0.0213
      3 C         142.4762  139.2732  169.0257 C.3     1  UNL1        0.0419
      4 C         142.6322  139.5763  167.5549 C.3     1  UNL1        0.0622
      5 C         142.8192  140.1614  166.1865 C.3     1  UNL1        0.0180
      6 C         143.0119  141.6413  166.3375 C.3     1  UNL1        0.0221
      7 C         142.9440  141.9708  167.7993 C.3     1  UNL1        0.0862
      8 N         142.7093  140.6946  168.5517 N.3     1  UNL1       -0.2699
      9 C         142.6154  140.4350  169.2996 C.3     1  UNL1        0.0898
     10 C         142.9098  143.0508  170.1619 C.2     1  UNL1        0.3382
     11 O         144.2548  143.5578  170.5906 O.2     1  UNL1       -0.2452
     12 C         140.4090  143.6518  169.7941 C.3     1  UNL1        0.2559
     13 O         141.6645  143.7583  170.6080 O.3     1  UNL1       -0.4415
@<TRIPOS>BOND
     1    12    13    1
     2    13    10    1
     3    10    11    2
     4    10     1    1
     5     1     2    2
     6     2     3    1
     7     3     4    1
     8     4     5    1
     9     5     6    1
    10     6     7    1
    11     7     8    1
    12     8     9    1
    13     7     1    1
    14     8     4    1
@<TRIPOS>MOLECULE
*****
 13 14 0 0 0
SMALL
GASTEIGER

@<TRIPOS>ATOM
      1 C         154.4597  134.1765  164.7145 C.2     1  UNL1        0.0636
      2 C         154.4160  134.6895  163.3056 C.2     1  UNL1       -0.0213
      3 C         154.5739  133.7389  162.1561 C.3     1  UNL1        0.0419
      4 C         154.7679  132.3041  162.5839 C.3     1  UNL1        0.0622
      5 C         154.9392  130.9902  163.2869 C.3     1  UNL1        0.0180
      6 C         154.8733  131.2429  164.7640 C.3     1  UNL1        0.0221
      7 C         154.6612  132.7129  164.9738 C.3     1  UNL1        0.0862
      8 N         154.5961  133.3688  163.6264 N.3     1  UNL1       -0.2699
      9 C         154.5007  134.0910  163.3027 C.3     1  UNL1        0.0898
     10 C         154.3018  135.1271  165.8640 C.2     1  UNL1        0.3382
     11 O         155.0246  136.4415  165.8550 O.2     1  UNL1       -0.2452
     12 C         153.9845  134.7331  168.4124 C.3     1  UNL1        0.2559
     13 O         153.4210  134.7634  167.0225 O.3     1  UNL1       -0.4415
@<TRIPOS>BOND
     1    12    13    1
     2    13    10    1
     3    10    11    2
     4    10     1    1
     5     1     2    2
     6     2     3    1
     7     3     4    1
     8     4     5    1
     9     5     6    1
    10     6     7    1
    11     7     8    1
    12     8     9    1
    13     7     1    1
    14     8     4    1
@<TRIPOS>MOLECULE
*****
 13 14 0 0 0
SMALL
GASTEIGER

@<TRIPOS>ATOM
      1 C         143.9601  139.8596  165.1350 C.2     1  UNL1        0.0636
      2 C         145.0748  139.8714  164.1313 C.2     1  UNL1       -0.0213
      3 C         145.6001  141.1758  163.6092 C.3     1  UNL1        0.0419
      4 C         144.9028  142.3817  164.1912 C.3     1  UNL1        0.0622
      5 C         144.0497  143.3763  164.9214 C.3     1  UNL1        0.0180
      6 C         143.1028  142.6163  165.8023 C.3     1  UNL1        0.0221
      7 C         143.3707  141.1522  165.6165 C.3     1  UNL1        0.0862
      8 N         144.4832  141.0072  164.6208 N.3     1  UNL1       -0.2699
      9 C         144.9088  140.4384  164.2592 C.3     1  UNL1        0.0898
     10 C         143.4348  138.5552  165.6571 C.2     1  UNL1        0.3382
     11 O         144.1660  137.8364  166.7519 O.2     1  UNL1       -0.2452
     12 C         141.9609  137.9660  163.6002 C.3     1  UNL1        0.2559
     13 O         142.1781  137.9696  165.0844 O.3     1  UNL1       -0.4415
@<TRIPOS>BOND
     1    12    13    1
     2    13    10    1
     3    10    11    2
     4    10     1    1
     5     1     2    2
     6     2     3    1
     7     3     4    1
     8     4     5    1
     9     5     6    1
    10     6     7    1
    11     7     8    1
    12     8     9    1
    13     7     1    1
    14     8     4    1
@<TRIPOS>MOLECULE
*****
 13 14 0 0 0
SMALL
GASTEIGER

@<TRIPOS>ATOM
      1 C         138.5212  139.4799  165.4073 C.2     1  UNL1        0.0636
      2 C         138.0387  140.7951  164.8712 C.2     1  UNL1       -0.0213
      3 C         137.8089  140.9660  163.3988 C.3     1  UNL1        0.0419
      4 C         138.1084  139.7238  162.5947 C.3     1  UNL1        0.0622
      5 C         138.4758  138.3703  162.0626 C.3     1  UNL1        0.0180
      6 C         138.8870  137.5124  163.2222 C.3     1  UNL1        0.0221
      7 C         138.7738  138.3355  164.4711 C.3     1  UNL1        0.0862
      8 N         138.2926  139.7023  164.0832 N.3     1  UNL1       -0.2699
      9 C         138.1095  140.4027  164.4169 C.3     1  UNL1        0.0898
     10 C         138.7510  139.3090  166.8797 C.2     1  UNL1        0.3382
     11 O         137.7262  138.6095  167.7226 O.2     1  UNL1       -0.2452
     12 C         141.3063  139.7648  166.7655 C.3     1  UNL1        0.2559
     13 O         140.0057  139.8377  167.5093 O.3     1  UNL1       -0.4415
@<TRIPOS>BOND
     1    12    13    1
     2    13    10    1
     3    10    11    2
     4    10     1    1
     5     1     2    2
     6     2     3    1
     7     3     4    1
     8     4     5    1
     9     5     6    1
    10     6     7    1
    11     7     8    1
    12     8     9    1
    13     7     1    1
    14     8     4    1
