@<TRIPOS>MOLECULE
*****
 24 25 0 0 0
SMALL
GASTEIGER

@<TRIPOS>ATOM
      1 C         139.9544  141.2649  167.2964 C.ar    1  UNL1        0.0265
      2 C         139.3494  139.9098  167.5142 C.ar    1  UNL1        0.0039
      3 C         138.5351  139.2689  166.4297 C.ar    1  UNL1        0.0713
      4 C         138.3258  139.9831  165.1274 C.ar    1  UNL1        0.0070
      5 C         138.9307  141.3383  164.9097 C.ar    1  UNL1        0.0372
      6 C         139.7450  141.9792  165.9942 C.ar    1  UNL1        0.1425
      7 C         137.9301  137.9136  166.6475 C.3     1  UNL1        0.4186
      8 F         137.3252  136.5584  166.8652 F       1  UNL1       -0.1659
      9 F         138.7418  137.3685  165.5099 F       1  UNL1       -0.1659
     10 F         137.1185  138.4587  167.7850 F       1  UNL1       -0.1659
     11 C         140.7687  141.9058  168.3809 C.3     1  UNL1        0.0799
     12 C         140.1753  142.1097  169.7434 C.3     1  UNL1        0.0221
     13 C         143.2279  142.2049  169.1638 C.3     1  UNL1        0.0861
     14 N         142.1764  142.3429  168.1030 N.3     1  UNL1       -0.2939
     15 H         142.4981  141.8054  167.2979 H       1  UNL1        0.1235
     16 O         140.3500  143.3345  165.7763 O.3     1  UNL1       -0.4537
     17 C         140.4318  143.9056  164.3918 C.ar    1  UNL1        0.1462
     18 C         139.3701  144.8467  163.9047 C.ar    1  UNL1        0.0384
     19 C         139.4518  145.4178  162.5201 C.ar    1  UNL1        0.0154
     20 C         140.5953  145.0478  161.6225 C.ar    1  UNL1        0.0684
     21 CL        140.6770  145.6189  160.2380 Cl      1  UNL1       -0.0814
     22 C         141.6569  144.1067  162.1095 C.ar    1  UNL1        0.0712
     23 CL        142.8004  143.7367  161.2119 Cl      1  UNL1       -0.0813
     24 C         141.5752  143.5356  163.4942 C.ar    1  UNL1        0.0497
@<TRIPOS>BOND
     1    13    14    1
     2    14    11    1
     3    11    12    1
     4    11     1    1
     5     1     2   ar
     6     2     3   ar
     7     3     7    1
     8     7     8    1
     9     7     9    1
    10     7    10    1
    11     3     4   ar
    12     4     5   ar
    13     5     6   ar
    14     6    16    1
    15    16    17    1
    16    17    18   ar
    17    18    19   ar
    18    19    20   ar
    19    20    21    1
    20    20    22   ar
    21    22    23    1
    22    22    24   ar
    23     6     1   ar
    24    24    17   ar
    25    14    15    1
@<TRIPOS>MOLECULE
*****
 24 25 0 0 0
SMALL
GASTEIGER

@<TRIPOS>ATOM
      1 C         143.0870  141.0946  165.9730 C.ar    1  UNL1        0.0265
      2 C         143.1091  142.1096  167.0771 C.ar    1  UNL1        0.0039
      3 C         142.9234  141.6738  168.5004 C.ar    1  UNL1        0.0713
      4 C         142.7155  140.2230  168.8194 C.ar    1  UNL1        0.0070
      5 C         142.6934  139.2080  167.7153 C.ar    1  UNL1        0.0372
      6 C         142.8791  139.6437  166.2921 C.ar    1  UNL1        0.1425
      7 C         142.9455  142.6889  169.6045 C.3     1  UNL1        0.4186
      8 F         142.9676  143.7040  170.7086 F       1  UNL1       -0.1659
      9 F         141.5533  143.1134  169.2421 F       1  UNL1       -0.1659
     10 F         144.3377  142.2644  169.9670 F       1  UNL1       -0.1659
     11 C         143.2727  141.5303  164.5497 C.3     1  UNL1        0.0799
     12 C         142.3598  142.5618  163.9560 C.3     1  UNL1        0.0221
     13 C         145.7289  141.5725  163.7039 C.3     1  UNL1        0.0861
     14 N         144.3714  140.9347  163.7203 N.3     1  UNL1       -0.2939
     15 H         144.5001  139.9767  164.0462 H       1  UNL1        0.1235
     16 O         142.8570  138.6286  165.1879 O.3     1  UNL1       -0.4537
     17 C         141.6157  138.4399  164.3674 C.ar    1  UNL1        0.1462
     18 C         140.3030  138.1746  165.0431 C.ar    1  UNL1        0.0384
     19 C         139.0616  137.9859  164.2226 C.ar    1  UNL1        0.0154
     20 C         139.1328  138.0626  162.7262 C.ar    1  UNL1        0.0684
     21 CL        137.8915  137.8739  161.9057 Cl      1  UNL1       -0.0814
     22 C         140.4454  138.3279  162.0504 C.ar    1  UNL1        0.0712
     23 CL        140.5166  138.4046  160.5541 Cl      1  UNL1       -0.0813
     24 C         141.6868  138.5166  162.8710 C.ar    1  UNL1        0.0497
@<TRIPOS>BOND
     1    13    14    1
     2    14    11    1
     3    11    12    1
     4    11     1    1
     5     1     2   ar
     6     2     3   ar
     7     3     7    1
     8     7     8    1
     9     7     9    1
    10     7    10    1
    11     3     4   ar
    12     4     5   ar
    13     5     6   ar
    14     6    16    1
    15    16    17    1
    16    17    18   ar
    17    18    19   ar
    18    19    20   ar
    19    20    21    1
    20    20    22   ar
    21    22    23    1
    22    22    24   ar
    23     6     1   ar
    24    24    17   ar
    25    14    15    1
@<TRIPOS>MOLECULE
*****
 24 25 0 0 0
SMALL
GASTEIGER

@<TRIPOS>ATOM
      1 C         139.8714  141.1204  167.6291 C.ar    1  UNL1        0.0265
      2 C         139.1902  139.7942  167.7936 C.ar    1  UNL1        0.0039
      3 C         138.4956  139.1579  166.6263 C.ar    1  UNL1        0.0713
      4 C         138.4822  139.8478  165.2945 C.ar    1  UNL1        0.0070
      5 C         139.1634  141.1739  165.1299 C.ar    1  UNL1        0.0372
      6 C         139.8580  141.8103  166.2973 C.ar    1  UNL1        0.1425
      7 C         137.8144  137.8316  166.7909 C.3     1  UNL1        0.4186
      8 F         137.1332  136.5054  166.9555 F       1  UNL1       -0.1659
      9 F         138.6308  137.2725  165.6637 F       1  UNL1       -0.1659
     10 F         136.9980  138.3908  167.9182 F       1  UNL1       -0.1659
     11 C         140.5660  141.7568  168.7964 C.3     1  UNL1        0.0799
     12 C         139.8886  141.8110  170.1336 C.3     1  UNL1        0.0221
     13 C         142.8338  142.5078  169.8177 C.3     1  UNL1        0.0861
     14 N         141.9379  142.3389  168.6265 N.3     1  UNL1       -0.2939
     15 H         142.4335  141.7375  167.9683 H       1  UNL1        0.1235
     16 O         140.5393  143.1366  166.1327 O.3     1  UNL1       -0.4537
     17 C         141.5992  143.3105  165.0857 C.ar    1  UNL1        0.1462
     18 C         141.3695  144.2433  163.9336 C.ar    1  UNL1        0.0384
     19 C         142.4295  144.4172  162.8866 C.ar    1  UNL1        0.0154
     20 C         143.7191  143.6583  162.9916 C.ar    1  UNL1        0.0684
     21 CL        144.7790  143.8322  161.9446 Cl      1  UNL1       -0.0814
     22 C         143.9488  142.7255  164.1436 C.ar    1  UNL1        0.0712
     23 CL        145.2384  141.9667  164.2486 Cl      1  UNL1       -0.0813
     24 C         142.8888  142.5516  165.1907 C.ar    1  UNL1        0.0497
@<TRIPOS>BOND
     1    13    14    1
     2    14    11    1
     3    11    12    1
     4    11     1    1
     5     1     2   ar
     6     2     3   ar
     7     3     7    1
     8     7     8    1
     9     7     9    1
    10     7    10    1
    11     3     4   ar
    12     4     5   ar
    13     5     6   ar
    14     6    16    1
    15    16    17    1
    16    17    18   ar
    17    18    19   ar
    18    19    20   ar
    19    20    21    1
    20    20    22   ar
    21    22    23    1
    22    22    24   ar
    23     6     1   ar
    24    24    17   ar
    25    14    15    1
@<TRIPOS>MOLECULE
*****
 24 25 0 0 0
SMALL
GASTEIGER

@<TRIPOS>ATOM
      1 C         139.1991  140.0021  166.9197 C.ar    1  UNL1        0.0265
      2 C         139.5327  139.9745  168.3818 C.ar    1  UNL1        0.0039
      3 C         140.2506  141.1325  169.0093 C.ar    1  UNL1        0.0713
      4 C         140.6349  142.3180  168.1746 C.ar    1  UNL1        0.0070
      5 C         140.3013  142.3456  166.7124 C.ar    1  UNL1        0.0372
      6 C         139.5834  141.1876  166.0850 C.ar    1  UNL1        0.1425
      7 C         140.5842  141.1049  170.4715 C.3     1  UNL1        0.4186
      8 F         140.9178  141.0773  171.9337 F       1  UNL1       -0.1659
      9 F         140.6459  142.6035  170.4857 F       1  UNL1       -0.1659
     10 F         140.5226  139.6062  170.4573 F       1  UNL1       -0.1659
     11 C         138.4812  138.8441  166.2922 C.3     1  UNL1        0.0799
     12 C         137.4098  138.1233  167.0553 C.3     1  UNL1        0.0221
     13 C         140.1624  137.7625  164.6328 C.3     1  UNL1        0.0861
     14 N         138.8348  138.4069  164.9016 N.3     1  UNL1       -0.2939
     15 H         138.1197  137.7398  164.6119 H       1  UNL1        0.1235
     16 O         139.2499  141.2152  164.6228 O.3     1  UNL1       -0.4537
     17 C         139.3316  142.5036  163.8590 C.ar    1  UNL1        0.1462
     18 C         138.1381  143.4094  163.7864 C.ar    1  UNL1        0.0384
     19 C         138.2198  144.6978  163.0226 C.ar    1  UNL1        0.0154
     20 C         139.4950  145.0805  162.3316 C.ar    1  UNL1        0.0684
     21 CL        139.5767  146.3689  161.5679 Cl      1  UNL1       -0.0814
     22 C         140.6884  144.1748  162.4043 C.ar    1  UNL1        0.0712
     23 CL        141.9636  144.5575  161.7132 Cl      1  UNL1       -0.0813
     24 C         140.6067  142.8863  163.1680 C.ar    1  UNL1        0.0497
@<TRIPOS>BOND
     1    13    14    1
     2    14    11    1
     3    11    12    1
     4    11     1    1
     5     1     2   ar
     6     2     3   ar
     7     3     7    1
     8     7     8    1
     9     7     9    1
    10     7    10    1
    11     3     4   ar
    12     4     5   ar
    13     5     6   ar
    14     6    16    1
    15    16    17    1
    16    17    18   ar
    17    18    19   ar
    18    19    20   ar
    19    20    21    1
    20    20    22   ar
    21    22    23    1
    22    22    24   ar
    23     6     1   ar
    24    24    17   ar
    25    14    15    1
@<TRIPOS>MOLECULE
*****
 24 25 0 0 0
SMALL
GASTEIGER

@<TRIPOS>ATOM
      1 C         141.7866  139.4544  166.4383 C.ar    1  UNL1        0.0265
      2 C         142.6560  139.3308  167.6544 C.ar    1  UNL1        0.0039
      3 C         142.0874  139.6092  169.0143 C.ar    1  UNL1        0.0713
      4 C         140.6495  140.0113  169.1581 C.ar    1  UNL1        0.0070
      5 C         139.7802  140.1349  167.9420 C.ar    1  UNL1        0.0372
      6 C         140.3487  139.8565  166.5821 C.ar    1  UNL1        0.1425
      7 C         142.9568  139.4855  170.2304 C.3     1  UNL1        0.4186
      8 F         143.8262  139.3618  171.4464 F       1  UNL1       -0.1659
      9 F         143.2810  140.9476  170.1473 F       1  UNL1       -0.1659
     10 F         142.6326  138.0233  170.3135 F       1  UNL1       -0.1659
     11 C         142.3552  139.1760  165.0785 C.3     1  UNL1        0.0799
     12 C         143.7335  139.6538  164.7296 C.3     1  UNL1        0.0221
     13 C         141.1402  137.0015  164.3401 C.3     1  UNL1        0.0861
     14 N         141.5454  138.4198  164.0674 N.3     1  UNL1       -0.2939
     15 H         140.6855  138.9491  163.9234 H       1  UNL1        0.1235
     16 O         139.4793  139.9802  165.3660 O.3     1  UNL1       -0.4537
     17 C         139.2939  141.3160  164.7093 C.ar    1  UNL1        0.1462
     18 C         137.9970  141.6447  164.0308 C.ar    1  UNL1        0.0384
     19 C         137.8116  142.9804  163.3742 C.ar    1  UNL1        0.0154
     20 C         138.9229  143.9876  163.3960 C.ar    1  UNL1        0.0684
     21 CL        138.7375  145.3234  162.7393 Cl      1  UNL1       -0.0814
     22 C         140.2197  143.6591  164.0744 C.ar    1  UNL1        0.0712
     23 CL        141.3310  144.6663  164.0962 Cl      1  UNL1       -0.0813
     24 C         140.4052  142.3232  164.7311 C.ar    1  UNL1        0.0497
@<TRIPOS>BOND
     1    13    14    1
     2    14    11    1
     3    11    12    1
     4    11     1    1
     5     1     2   ar
     6     2     3   ar
     7     3     7    1
     8     7     8    1
     9     7     9    1
    10     7    10    1
    11     3     4   ar
    12     4     5   ar
    13     5     6   ar
    14     6    16    1
    15    16    17    1
    16    17    18   ar
    17    18    19   ar
    18    19    20   ar
    19    20    21    1
    20    20    22   ar
    21    22    23    1
    22    22    24   ar
    23     6     1   ar
    24    24    17   ar
    25    14    15    1
@<TRIPOS>MOLECULE
*****
 24 25 0 0 0
SMALL
GASTEIGER

@<TRIPOS>ATOM
      1 C         139.1701  140.4580  166.0696 C.ar    1  UNL1        0.0265
      2 C         139.1784  139.8882  167.4571 C.ar    1  UNL1        0.0039
      3 C         139.7965  140.6634  168.5826 C.ar    1  UNL1        0.0713
      4 C         140.4064  142.0085  168.3207 C.ar    1  UNL1        0.0070
      5 C         140.3982  142.5784  166.9332 C.ar    1  UNL1        0.0372
      6 C         139.7800  141.8031  165.8077 C.ar    1  UNL1        0.1425
      7 C         139.8048  140.0934  169.9702 C.3     1  UNL1        0.4186
      8 F         139.8130  139.5236  171.3576 F       1  UNL1       -0.1659
      9 F         138.4858  140.7513  170.2482 F       1  UNL1       -0.1659
     10 F         141.1238  139.4356  169.6921 F       1  UNL1       -0.1659
     11 C         138.5519  139.6828  164.9440 C.3     1  UNL1        0.0799
     12 C         138.8186  138.2128  164.8105 C.3     1  UNL1        0.0221
     13 C         137.8301  140.1100  162.4851 C.3     1  UNL1        0.0861
     14 N         137.6670  140.3776  163.9520 N.3     1  UNL1       -0.2939
     15 H         136.7065  140.1315  164.1912 H       1  UNL1        0.1235
     16 O         139.7717  142.3731  164.4201 O.3     1  UNL1       -0.4537
     17 C         141.0398  142.4180  163.6203 C.ar    1  UNL1        0.1462
     18 C         141.4328  141.2457  162.7709 C.ar    1  UNL1        0.0384
     19 C         142.7009  141.2906  161.9710 C.ar    1  UNL1        0.0154
     20 C         143.5761  142.5079  162.0204 C.ar    1  UNL1        0.0684
     21 CL        144.8442  142.5528  161.2205 Cl      1  UNL1       -0.0814
     22 C         143.1832  143.6801  162.8697 C.ar    1  UNL1        0.0712
     23 CL        144.0584  144.8974  162.9191 Cl      1  UNL1       -0.0813
     24 C         141.9150  143.6352  163.6696 C.ar    1  UNL1        0.0497
@<TRIPOS>BOND
     1    13    14    1
     2    14    11    1
     3    11    12    1
     4    11     1    1
     5     1     2   ar
     6     2     3   ar
     7     3     7    1
     8     7     8    1
     9     7     9    1
    10     7    10    1
    11     3     4   ar
    12     4     5   ar
    13     5     6   ar
    14     6    16    1
    15    16    17    1
    16    17    18   ar
    17    18    19   ar
    18    19    20   ar
    19    20    21    1
    20    20    22   ar
    21    22    23    1
    22    22    24   ar
    23     6     1   ar
    24    24    17   ar
    25    14    15    1
@<TRIPOS>MOLECULE
*****
 24 25 0 0 0
SMALL
GASTEIGER

@<TRIPOS>ATOM
      1 C         140.9055  140.8875  166.3403 C.ar    1  UNL1        0.0265
      2 C         140.2213  139.5824  166.6204 C.ar    1  UNL1        0.0039
      3 C         138.8513  139.3203  166.0686 C.ar    1  UNL1        0.0713
      4 C         138.1656  140.3632  165.2368 C.ar    1  UNL1        0.0070
      5 C         138.8498  141.6683  164.9567 C.ar    1  UNL1        0.0372
      6 C         140.2198  141.9304  165.5085 C.ar    1  UNL1        0.1425
      7 C         138.1670  138.0151  166.3487 C.3     1  UNL1        0.4186
      8 F         137.4828  136.7100  166.6288 F       1  UNL1       -0.1659
      9 F         137.2624  138.7000  167.3298 F       1  UNL1       -0.1659
     10 F         139.0716  137.3302  165.3676 F       1  UNL1       -0.1659
     11 C         142.2755  141.1496  166.8921 C.3     1  UNL1        0.0799
     12 C         142.5630  140.8889  168.3410 C.3     1  UNL1        0.0221
     13 C         143.9210  140.8006  164.9121 C.3     1  UNL1        0.0861
     14 N         143.3579  141.6725  165.9950 N.3     1  UNL1       -0.2939
     15 H         142.9855  142.5053  165.5387 H       1  UNL1        0.1235
     16 O         140.9041  143.2356  165.2284 O.3     1  UNL1       -0.4537
     17 C         141.0056  143.7421  163.8202 C.ar    1  UNL1        0.1462
     18 C         141.9127  143.0581  162.8406 C.ar    1  UNL1        0.0384
     19 C         142.0142  143.5646  161.4324 C.ar    1  UNL1        0.0154
     20 C         141.2088  144.7552  161.0037 C.ar    1  UNL1        0.0684
     21 CL        141.3104  145.2617  159.5955 Cl      1  UNL1       -0.0814
     22 C         140.3018  145.4392  161.9831 C.ar    1  UNL1        0.0712
     23 CL        139.4964  146.6298  161.5544 Cl      1  UNL1       -0.0813
     24 C         140.2002  144.9327  163.3914 C.ar    1  UNL1        0.0497
@<TRIPOS>BOND
     1    13    14    1
     2    14    11    1
     3    11    12    1
     4    11     1    1
     5     1     2   ar
     6     2     3   ar
     7     3     7    1
     8     7     8    1
     9     7     9    1
    10     7    10    1
    11     3     4   ar
    12     4     5   ar
    13     5     6   ar
    14     6    16    1
    15    16    17    1
    16    17    18   ar
    17    18    19   ar
    18    19    20   ar
    19    20    21    1
    20    20    22   ar
    21    22    23    1
    22    22    24   ar
    23     6     1   ar
    24    24    17   ar
    25    14    15    1
@<TRIPOS>MOLECULE
*****
 24 25 0 0 0
SMALL
GASTEIGER

@<TRIPOS>ATOM
      1 C         141.5752  140.5574  167.2771 C.ar    1  UNL1        0.0265
      2 C         142.3718  141.5257  168.1003 C.ar    1  UNL1        0.0039
      3 C         141.7882  142.0987  169.3577 C.ar    1  UNL1        0.0713
      4 C         140.4080  141.7033  169.7920 C.ar    1  UNL1        0.0070
      5 C         139.6114  140.7350  168.9689 C.ar    1  UNL1        0.0372
      6 C         140.1950  140.1620  167.7114 C.ar    1  UNL1        0.1425
      7 C         142.5849  143.0671  170.1808 C.3     1  UNL1        0.4186
      8 F         143.3816  144.0355  171.0039 F       1  UNL1       -0.1659
      9 F         141.4278  144.0216  170.1778 F       1  UNL1       -0.1659
     10 F         143.7420  142.1127  170.1839 F       1  UNL1       -0.1659
     11 C         142.1587  139.9844  166.0197 C.3     1  UNL1        0.0799
     12 C         142.3988  140.8698  164.8330 C.3     1  UNL1        0.0221
     13 C         143.8360  138.0450  166.4387 C.3     1  UNL1        0.0861
     14 N         142.5022  138.5260  165.9490 N.3     1  UNL1       -0.2939
     15 H         141.7937  138.0300  166.4897 H       1  UNL1        0.1235
     16 O         139.3982  139.1936  166.8883 O.3     1  UNL1       -0.4537
     17 C         138.9341  139.5806  165.5154 C.ar    1  UNL1        0.1462
     18 C         138.4760  140.9834  165.2463 C.ar    1  UNL1        0.0384
     19 C         138.0118  141.3704  163.8735 C.ar    1  UNL1        0.0154
     20 C         138.0058  140.3547  162.7697 C.ar    1  UNL1        0.0684
     21 CL        137.5416  140.7417  161.3969 Cl      1  UNL1       -0.0814
     22 C         138.4639  138.9520  163.0388 C.ar    1  UNL1        0.0712
     23 CL        138.4578  137.9363  161.9350 Cl      1  UNL1       -0.0813
     24 C         138.9281  138.5649  164.4117 C.ar    1  UNL1        0.0497
@<TRIPOS>BOND
     1    13    14    1
     2    14    11    1
     3    11    12    1
     4    11     1    1
     5     1     2   ar
     6     2     3   ar
     7     3     7    1
     8     7     8    1
     9     7     9    1
    10     7    10    1
    11     3     4   ar
    12     4     5   ar
    13     5     6   ar
    14     6    16    1
    15    16    17    1
    16    17    18   ar
    17    18    19   ar
    18    19    20   ar
    19    20    21    1
    20    20    22   ar
    21    22    23    1
    22    22    24   ar
    23     6     1   ar
    24    24    17   ar
    25    14    15    1
@<TRIPOS>MOLECULE
*****
 24 25 0 0 0
SMALL
GASTEIGER

@<TRIPOS>ATOM
      1 C         138.7900  141.3977  164.8535 C.ar    1  UNL1        0.0265
      2 C         138.0759  140.1410  165.2544 C.ar    1  UNL1        0.0039
      3 C         138.5560  139.3496  166.4348 C.ar    1  UNL1        0.0713
      4 C         139.7500  139.8149  167.2143 C.ar    1  UNL1        0.0070
      5 C         140.4640  141.0716  166.8134 C.ar    1  UNL1        0.0372
      6 C         139.9840  141.8630  165.6330 C.ar    1  UNL1        0.1425
      7 C         137.8418  138.0928  166.8356 C.3     1  UNL1        0.4186
      8 F         137.1278  136.8361  167.2365 F       1  UNL1       -0.1659
      9 F         138.3377  137.4147  165.5930 F       1  UNL1       -0.1659
     10 F         137.3460  138.7709  168.0783 F       1  UNL1       -0.1659
     11 C         138.3099  142.1891  163.6731 C.3     1  UNL1        0.0799
     12 C         138.3132  141.5729  162.3056 C.3     1  UNL1        0.0221
     13 C         138.1573  144.6451  162.8398 C.3     1  UNL1        0.0861
     14 N         137.8267  143.5967  163.8603 N.3     1  UNL1       -0.2939
     15 H         136.8093  143.5533  163.9189 H       1  UNL1        0.1235
     16 O         140.6981  143.1198  165.2321 O.3     1  UNL1       -0.4537
     17 C         141.8088  143.0629  164.2256 C.ar    1  UNL1        0.1462
     18 C         141.5952  143.6005  162.8416 C.ar    1  UNL1        0.0384
     19 C         142.7059  143.5435  161.8352 C.ar    1  UNL1        0.0154
     20 C         144.0303  142.9489  162.2126 C.ar    1  UNL1        0.0684
     21 CL        145.1410  142.8920  161.2061 Cl      1  UNL1       -0.0814
     22 C         144.2439  142.4113  163.5965 C.ar    1  UNL1        0.0712
     23 CL        145.5683  141.8167  163.9739 Cl      1  UNL1       -0.0813
     24 C         143.1332  142.4683  164.6031 C.ar    1  UNL1        0.0497
@<TRIPOS>BOND
     1    13    14    1
     2    14    11    1
     3    11    12    1
     4    11     1    1
     5     1     2   ar
     6     2     3   ar
     7     3     7    1
     8     7     8    1
     9     7     9    1
    10     7    10    1
    11     3     4   ar
    12     4     5   ar
    13     5     6   ar
    14     6    16    1
    15    16    17    1
    16    17    18   ar
    17    18    19   ar
    18    19    20   ar
    19    20    21    1
    20    20    22   ar
    21    22    23    1
    22    22    24   ar
    23     6     1   ar
    24    24    17   ar
    25    14    15    1
