@<TRIPOS>MOLECULE
*****
 31 34 0 0 0
SMALL
GASTEIGER

@<TRIPOS>ATOM
      1 C         139.9860  139.3093  165.5060 C.ar    1  UNL1        0.1626
      2 N         141.0971  140.1900  165.0164 N.ar    1  UNL1       -0.2096
      3 C         142.0896  139.6628  164.0230 C.ar    1  UNL1        0.1646
      4 C         141.9711  138.2549  163.5193 C.ar    1  UNL1        0.1194
      5 C         140.8600  137.3742  164.0090 C.ar    1  UNL1        0.0547
      6 C         139.8674  137.9015  165.0024 C.ar    1  UNL1        0.1732
      7 F         138.7563  137.0207  165.4921 F       1  UNL1       -0.2012
      8 N         143.0896  138.0139  162.5493 N.ar    1  UNL1       -0.2222
      9 C         143.8994  139.2729  162.4535 C.ar    1  UNL1        0.1800
     10 N         143.2814  140.2920  163.3643 N.ar    1  UNL1       -0.2884
     11 N         138.9934  139.8366  166.4995 N.pl3   1  UNL1       -0.2800
     12 H         138.1082  140.1427  166.1959 H       1  UNL1        0.1551
     13 C         140.6020  140.1749  170.0156 C.ar    1  UNL1        0.2216
     14 C         140.6987  140.2306  168.5198 C.ar    1  UNL1        0.0932
     15 C         139.3494  139.8975  167.9553 C.ar    1  UNL1        0.1575
     16 N         138.4188  139.6360  169.1023 N.ar    1  UNL1       -0.1550
     17 N         139.1929  139.8074  170.3756 N.ar    1  UNL1       -0.2446
     18 H         138.8384  139.6980  171.2875 H       1  UNL1        0.1920
     19 C         143.1438  140.3501  170.5238 C.3     1  UNL1        0.2542
     20 O         141.7182  140.4402  170.9818 O.3     1  UNL1       -0.4564
     21 C         143.7695  141.6940  163.5787 C.3     1  UNL1        0.1575
     22 C         142.8780  142.8562  163.2554 C.ar    1  UNL1        0.0823
     23 C         143.0266  144.1467  164.0053 C.ar    1  UNL1        0.0190
     24 C         142.1351  145.3090  163.6821 C.ar    1  UNL1        0.0325
     25 C         141.0950  145.1806  162.6088 C.ar    1  UNL1        0.1592
     26 F         140.2035  146.3428  162.2854 F       1  UNL1       -0.2025
     27 C         140.9465  143.8900  161.8589 C.ar    1  UNL1        0.1280
     28 N         141.8379  142.7279  162.1822 N.ar    1  UNL1       -0.2438
     29 C         145.1491  141.9339  164.1165 C.3     1  UNL1        0.1658
     30 O         146.3349  141.8560  163.2011 O.3     1  UNL1       -0.3796
     31 H         146.4401  140.9450  162.8850 H       1  UNL1        0.2105
@<TRIPOS>BOND
     1    19    20    1
     2    20    13    1
     3    13    14   ar
     4    14    15   ar
     5    15    11    1
     6    11     1    1
     7     1     2   ar
     8     2     3   ar
     9     3     4   ar
    10     4     5   ar
    11     5     6   ar
    12     6     7    1
    13     4     8   ar
    14     8     9   ar
    15     9    10   ar
    16    10    21    1
    17    21    29    1
    18    29    30    1
    19    21    22    1
    20    22    23   ar
    21    23    24   ar
    22    24    25   ar
    23    25    26    1
    24    25    27   ar
    25    27    28   ar
    26    15    16   ar
    27    16    17   ar
    28    17    13   ar
    29     6     1   ar
    30    28    22   ar
    31    10     3   ar
    32    11    12    1
    33    30    31    1
    34    17    18    1
@<TRIPOS>MOLECULE
*****
 31 34 0 0 0
SMALL
GASTEIGER

@<TRIPOS>ATOM
      1 C         141.9552  143.5301  164.5775 C.ar    1  UNL1        0.1626
      2 N         142.1761  142.0721  164.8523 N.ar    1  UNL1       -0.2096
      3 C         143.5131  141.4510  164.5759 C.ar    1  UNL1        0.1646
      4 C         144.6293  142.2878  164.0246 C.ar    1  UNL1        0.1194
      5 C         144.4084  143.7457  163.7497 C.ar    1  UNL1        0.0547
      6 C         143.0713  144.3668  164.0262 C.ar    1  UNL1        0.1732
      7 F         142.8504  145.8249  163.7514 F       1  UNL1       -0.2012
      8 N         145.8297  141.4048  163.8533 N.ar    1  UNL1       -0.2222
      9 C         145.4554  140.0222  164.2987 C.ar    1  UNL1        0.1800
     10 N         144.0237  140.0507  164.7453 N.ar    1  UNL1       -0.2884
     11 N         140.6180  144.1512  164.8540 N.pl3   1  UNL1       -0.2800
     12 H         140.5153  144.7876  165.5980 H       1  UNL1        0.1551
     13 C         137.7578  142.5365  162.7858 C.ar    1  UNL1        0.2216
     14 C         138.9651  142.4173  163.6679 C.ar    1  UNL1        0.0932
     15 C         139.4375  143.8025  163.9968 C.ar    1  UNL1        0.1575
     16 N         138.5222  144.7778  163.3179 N.ar    1  UNL1       -0.1550
     17 N         137.4840  143.9954  162.5695 N.ar    1  UNL1       -0.2446
     18 H         136.7516  144.3730  162.0308 H       1  UNL1        0.1920
     19 C         137.6390  140.3613  161.3702 C.3     1  UNL1        0.2542
     20 O         136.9637  141.3970  162.2195 O.3     1  UNL1       -0.4564
     21 C         143.2401  138.8839  165.2693 C.3     1  UNL1        0.1575
     22 C         141.9591  138.4801  164.6016 C.ar    1  UNL1        0.0823
     23 C         140.6596  138.5922  165.3421 C.ar    1  UNL1        0.0190
     24 C         139.3785  138.1884  164.6744 C.ar    1  UNL1        0.0325
     25 C         139.3972  137.6723  163.2660 C.ar    1  UNL1        0.1592
     26 F         138.1161  137.2685  162.5982 F       1  UNL1       -0.2025
     27 C         140.6968  137.5602  162.5255 C.ar    1  UNL1        0.1280
     28 N         141.9777  137.9640  163.1932 N.ar    1  UNL1       -0.2438
     29 C         143.7376  138.1210  166.4611 C.3     1  UNL1        0.1658
     30 O         143.3684  138.5672  167.8449 O.3     1  UNL1       -0.3796
     31 H         143.7723  139.4306  168.0247 H       1  UNL1        0.2105
@<TRIPOS>BOND
     1    19    20    1
     2    20    13    1
     3    13    14   ar
     4    14    15   ar
     5    15    11    1
     6    11     1    1
     7     1     2   ar
     8     2     3   ar
     9     3     4   ar
    10     4     5   ar
    11     5     6   ar
    12     6     7    1
    13     4     8   ar
    14     8     9   ar
    15     9    10   ar
    16    10    21    1
    17    21    29    1
    18    29    30    1
    19    21    22    1
    20    22    23   ar
    21    23    24   ar
    22    24    25   ar
    23    25    26    1
    24    25    27   ar
    25    27    28   ar
    26    15    16   ar
    27    16    17   ar
    28    17    13   ar
    29     6     1   ar
    30    28    22   ar
    31    10     3   ar
    32    11    12    1
    33    30    31    1
    34    17    18    1
@<TRIPOS>MOLECULE
*****
 31 34 0 0 0
SMALL
GASTEIGER

@<TRIPOS>ATOM
      1 C         142.3460  143.7866  163.9707 C.ar    1  UNL1        0.1626
      2 N         141.9009  142.3689  163.7657 N.ar    1  UNL1       -0.2096
      3 C         142.8738  141.2428  163.9537 C.ar    1  UNL1        0.1646
      4 C         144.2917  141.5344  164.3468 C.ar    1  UNL1        0.1194
      5 C         144.7368  142.9521  164.5518 C.ar    1  UNL1        0.0547
      6 C         143.7638  144.0782  164.3637 C.ar    1  UNL1        0.1732
      7 F         144.2089  145.4960  164.5687 F       1  UNL1       -0.2012
      8 N         145.0197  140.2277  164.4589 N.ar    1  UNL1       -0.2222
      9 C         144.0517  139.1286  164.1352 C.ar    1  UNL1        0.1800
     10 N         142.7255  139.7559  163.8230 N.ar    1  UNL1       -0.2884
     11 N         141.3730  144.9128  163.7826 N.pl3   1  UNL1       -0.2800
     12 H         141.0772  145.4424  164.5580 H       1  UNL1        0.1551
     13 C         140.5886  145.3022  160.0012 C.ar    1  UNL1        0.2216
     14 C         141.4197  144.7388  161.1156 C.ar    1  UNL1        0.0932
     15 C         140.8509  145.2318  162.4131 C.ar    1  UNL1        0.1575
     16 N         139.6683  146.1000  162.1006 N.ar    1  UNL1       -0.1550
     17 N         139.5062  146.1435  160.6100 N.ar    1  UNL1       -0.2446
     18 H         138.8114  146.6375  160.1176 H       1  UNL1        0.1920
     19 C         140.3018  146.0640  157.5340 C.3     1  UNL1        0.2542
     20 O         140.8025  145.0658  158.5355 O.3     1  UNL1       -0.4564
     21 C         141.4711  139.0247  163.4462 C.3     1  UNL1        0.1575
     22 C         140.3628  138.8725  164.4454 C.ar    1  UNL1        0.0823
     23 C         139.6263  137.5705  164.5559 C.ar    1  UNL1        0.0190
     24 C         138.5180  137.4181  165.5551 C.ar    1  UNL1        0.0325
     25 C         138.1461  138.5680  166.4437 C.ar    1  UNL1        0.1592
     26 F         137.0378  138.4158  167.4429 F       1  UNL1       -0.2025
     27 C         138.8827  139.8700  166.3331 C.ar    1  UNL1        0.1280
     28 N         139.9910  140.0223  165.3340 N.ar    1  UNL1       -0.2438
     29 C         141.3252  138.4457  162.0702 C.3     1  UNL1        0.1658
     30 O         141.9818  137.1400  161.7323 O.3     1  UNL1       -0.3796
     31 H         142.9455  137.2453  161.7627 H       1  UNL1        0.2105
@<TRIPOS>BOND
     1    19    20    1
     2    20    13    1
     3    13    14   ar
     4    14    15   ar
     5    15    11    1
     6    11     1    1
     7     1     2   ar
     8     2     3   ar
     9     3     4   ar
    10     4     5   ar
    11     5     6   ar
    12     6     7    1
    13     4     8   ar
    14     8     9   ar
    15     9    10   ar
    16    10    21    1
    17    21    29    1
    18    29    30    1
    19    21    22    1
    20    22    23   ar
    21    23    24   ar
    22    24    25   ar
    23    25    26    1
    24    25    27   ar
    25    27    28   ar
    26    15    16   ar
    27    16    17   ar
    28    17    13   ar
    29     6     1   ar
    30    28    22   ar
    31    10     3   ar
    32    11    12    1
    33    30    31    1
    34    17    18    1
@<TRIPOS>MOLECULE
*****
 31 34 0 0 0
SMALL
GASTEIGER

@<TRIPOS>ATOM
      1 C         138.0648  141.8454  162.2003 C.ar    1  UNL1        0.1626
      2 N         138.3070  141.2489  163.5551 N.ar    1  UNL1       -0.2096
      3 C         138.5275  139.7719  163.6957 C.ar    1  UNL1        0.1646
      4 C         138.5059  138.8914  162.4815 C.ar    1  UNL1        0.1194
      5 C         138.2637  139.4879  161.1267 C.ar    1  UNL1        0.0547
      6 C         138.0431  140.9650  160.9862 C.ar    1  UNL1        0.1732
      7 F         137.8009  141.5615  159.6313 F       1  UNL1       -0.2012
      8 N         138.7533  137.4807  162.9273 N.ar    1  UNL1       -0.2222
      9 C         138.9279  137.4894  164.4171 C.ar    1  UNL1        0.1800
     10 N         138.7883  138.9054  164.8920 N.ar    1  UNL1       -0.2884
     11 N         137.8442  143.3225  162.0598 N.pl3   1  UNL1       -0.2800
     12 H         136.9431  143.6696  161.8680 H       1  UNL1        0.1551
     13 C         141.2268  145.1517  162.5864 C.ar    1  UNL1        0.2216
     14 C         140.4131  143.8929  162.5296 C.ar    1  UNL1        0.0932
     15 C         138.9966  144.2706  162.2114 C.ar    1  UNL1        0.1575
     16 N         138.9351  145.7627  162.0715 N.ar    1  UNL1       -0.1550
     17 N         140.3134  146.3073  162.3033 N.ar    1  UNL1       -0.2446
     18 H         140.5729  147.2565  162.2746 H       1  UNL1        0.1920
     19 C         143.2492  144.6438  164.1361 C.3     1  UNL1        0.2542
     20 O         142.6961  145.2394  162.8755 O.3     1  UNL1       -0.4564
     21 C         138.8915  139.3727  166.3136 C.3     1  UNL1        0.1575
     22 C         140.0851  140.1653  166.7578 C.ar    1  UNL1        0.0823
     23 C         139.9579  141.6399  167.0011 C.ar    1  UNL1        0.0190
     24 C         141.1514  142.4325  167.4453 C.ar    1  UNL1        0.0325
     25 C         142.4722  141.7503  167.6461 C.ar    1  UNL1        0.1592
     26 F         143.6658  142.5428  168.0903 F       1  UNL1       -0.2025
     27 C         142.5993  140.2757  167.4027 C.ar    1  UNL1        0.1280
     28 N         141.4058  139.4832  166.9586 N.ar    1  UNL1       -0.2438
     29 C         137.8011  139.0476  167.2909 C.3     1  UNL1        0.1658
     30 O         137.1546  137.6941  167.2705 O.3     1  UNL1       -0.3796
     31 H         136.6669  137.5813  166.4397 H       1  UNL1        0.2105
@<TRIPOS>BOND
     1    19    20    1
     2    20    13    1
     3    13    14   ar
     4    14    15   ar
     5    15    11    1
     6    11     1    1
     7     1     2   ar
     8     2     3   ar
     9     3     4   ar
    10     4     5   ar
    11     5     6   ar
    12     6     7    1
    13     4     8   ar
    14     8     9   ar
    15     9    10   ar
    16    10    21    1
    17    21    29    1
    18    29    30    1
    19    21    22    1
    20    22    23   ar
    21    23    24   ar
    22    24    25   ar
    23    25    26    1
    24    25    27   ar
    25    27    28   ar
    26    15    16   ar
    27    16    17   ar
    28    17    13   ar
    29     6     1   ar
    30    28    22   ar
    31    10     3   ar
    32    11    12    1
    33    30    31    1
    34    17    18    1
@<TRIPOS>MOLECULE
*****
 31 34 0 0 0
SMALL
GASTEIGER

@<TRIPOS>ATOM
      1 C         143.9941  142.4943  163.7255 C.ar    1  UNL1        0.1626
      2 N         142.7732  141.9980  164.4419 N.ar    1  UNL1       -0.2096
      3 C         142.7324  140.5950  164.9708 C.ar    1  UNL1        0.1646
      4 C         143.9125  139.6882  164.7833 C.ar    1  UNL1        0.1194
      5 C         145.1334  140.1845  164.0669 C.ar    1  UNL1        0.0547
      6 C         145.1741  141.5876  163.5381 C.ar    1  UNL1        0.1732
      7 F         146.3950  142.0840  162.8217 F       1  UNL1       -0.2012
      8 N         143.5845  138.3650  165.4091 N.ar    1  UNL1       -0.2222
      9 C         142.2017  138.4541  165.9834 C.ar    1  UNL1        0.1800
     10 N         141.6750  139.8322  165.7125 N.ar    1  UNL1       -0.2884
     11 N         144.0347  143.8975  163.1967 N.pl3   1  UNL1       -0.2800
     12 H         144.8929  144.3762  163.1365 H       1  UNL1        0.1551
     13 C         140.8455  145.2364  161.4356 C.ar    1  UNL1        0.2216
     14 C         142.0671  144.3662  161.4490 C.ar    1  UNL1        0.0932
     15 C         142.7679  144.5711  162.7594 C.ar    1  UNL1        0.1575
     16 N         141.9792  145.5681  163.5558 N.ar    1  UNL1       -0.1550
     17 N         140.7911  145.9792  162.7376 N.ar    1  UNL1       -0.2446
     18 H         140.0974  146.6235  163.0077 H       1  UNL1        0.1920
     19 C         140.0708  144.5818  159.0436 C.3     1  UNL1        0.2542
     20 O         139.8525  145.3447  160.3165 O.3     1  UNL1       -0.4564
     21 C         140.3276  140.3557  166.1130 C.3     1  UNL1        0.1575
     22 C         140.1484  141.0262  167.4428 C.ar    1  UNL1        0.0823
     23 C         140.6244  142.4344  167.6428 C.ar    1  UNL1        0.0190
     24 C         140.4452  143.1050  168.9725 C.ar    1  UNL1        0.0325
     25 C         139.7899  142.3671  170.1023 C.ar    1  UNL1        0.1592
     26 F         139.6107  143.0376  171.4321 F       1  UNL1       -0.2025
     27 C         139.3139  140.9588  169.9022 C.ar    1  UNL1        0.1280
     28 N         139.4931  140.2883  168.5725 N.ar    1  UNL1       -0.2438
     29 C         139.1594  140.2086  165.1836 C.3     1  UNL1        0.1658
     30 O         137.8023  139.8791  165.7312 O.3     1  UNL1       -0.3796
     31 H         137.8164  138.9889  166.1162 H       1  UNL1        0.2105
@<TRIPOS>BOND
     1    19    20    1
     2    20    13    1
     3    13    14   ar
     4    14    15   ar
     5    15    11    1
     6    11     1    1
     7     1     2   ar
     8     2     3   ar
     9     3     4   ar
    10     4     5   ar
    11     5     6   ar
    12     6     7    1
    13     4     8   ar
    14     8     9   ar
    15     9    10   ar
    16    10    21    1
    17    21    29    1
    18    29    30    1
    19    21    22    1
    20    22    23   ar
    21    23    24   ar
    22    24    25   ar
    23    25    26    1
    24    25    27   ar
    25    27    28   ar
    26    15    16   ar
    27    16    17   ar
    28    17    13   ar
    29     6     1   ar
    30    28    22   ar
    31    10     3   ar
    32    11    12    1
    33    30    31    1
    34    17    18    1
@<TRIPOS>MOLECULE
*****
 31 34 0 0 0
SMALL
GASTEIGER

@<TRIPOS>ATOM
      1 C         142.3247  143.6564  164.0553 C.ar    1  UNL1        0.1626
      2 N         142.1413  142.2552  164.5581 N.ar    1  UNL1       -0.2096
      3 C         143.2811  141.2818  164.4985 C.ar    1  UNL1        0.1646
      4 C         144.6042  141.7097  163.9361 C.ar    1  UNL1        0.1194
      5 C         144.7876  143.1109  163.4333 C.ar    1  UNL1        0.0547
      6 C         143.6477  144.0843  163.4930 C.ar    1  UNL1        0.1732
      7 F         143.8311  145.4857  162.9901 F       1  UNL1       -0.2012
      8 N         145.5382  140.5380  164.0056 N.ar    1  UNL1       -0.2222
      9 C         144.7923  139.3860  164.6110 C.ar    1  UNL1        0.1800
     10 N         143.3973  139.8457  164.9157 N.ar    1  UNL1       -0.2884
     11 N         141.1849  144.6298  164.1150 N.pl3   1  UNL1       -0.2800
     12 H         141.3135  145.5137  164.5291 H       1  UNL1        0.1551
     13 C         137.9490  142.9564  162.7756 C.ar    1  UNL1        0.2216
     14 C         139.3153  142.8633  163.3875 C.ar    1  UNL1        0.0932
     15 C         139.8492  144.2564  163.5437 C.ar    1  UNL1        0.1575
     16 N         138.8128  145.2104  163.0283 N.ar    1  UNL1       -0.1550
     17 N         137.6384  144.4070  162.5536 N.ar    1  UNL1       -0.2446
     18 H         136.8093  144.7683  162.1646 H       1  UNL1        0.1920
     19 C         137.6202  140.4190  162.3248 C.3     1  UNL1        0.2542
     20 O         137.0510  141.8016  162.4439 O.3     1  UNL1       -0.4564
     21 C         142.3097  139.0150  165.5296 C.3     1  UNL1        0.1575
     22 C         141.8021  139.3405  166.9031 C.ar    1  UNL1        0.0823
     23 C         142.7196  139.2389  168.0853 C.ar    1  UNL1        0.0190
     24 C         142.2121  139.5643  169.4588 C.ar    1  UNL1        0.0325
     25 C         140.7869  139.9913  169.6500 C.ar    1  UNL1        0.1592
     26 F         140.2793  140.3168  171.0235 F       1  UNL1       -0.2025
     27 C         139.8694  140.0929  168.4678 C.ar    1  UNL1        0.1280
     28 N         140.3769  139.7675  167.0943 N.ar    1  UNL1       -0.2438
     29 C         141.7296  137.8589  164.7701 C.3     1  UNL1        0.1658
     30 O         140.2730  137.5273  164.9062 O.3     1  UNL1       -0.3796
     31 H         140.0916  137.2333  165.8126 H       1  UNL1        0.2105
@<TRIPOS>BOND
     1    19    20    1
     2    20    13    1
     3    13    14   ar
     4    14    15   ar
     5    15    11    1
     6    11     1    1
     7     1     2   ar
     8     2     3   ar
     9     3     4   ar
    10     4     5   ar
    11     5     6   ar
    12     6     7    1
    13     4     8   ar
    14     8     9   ar
    15     9    10   ar
    16    10    21    1
    17    21    29    1
    18    29    30    1
    19    21    22    1
    20    22    23   ar
    21    23    24   ar
    22    24    25   ar
    23    25    26    1
    24    25    27   ar
    25    27    28   ar
    26    15    16   ar
    27    16    17   ar
    28    17    13   ar
    29     6     1   ar
    30    28    22   ar
    31    10     3   ar
    32    11    12    1
    33    30    31    1
    34    17    18    1
@<TRIPOS>MOLECULE
*****
 31 34 0 0 0
SMALL
GASTEIGER

@<TRIPOS>ATOM
      1 C         140.3418  138.9600  163.4473 C.ar    1  UNL1        0.1626
      2 N         140.6096  140.3075  162.8451 N.ar    1  UNL1       -0.2096
      3 C         141.9381  140.5947  162.2105 C.ar    1  UNL1        0.1646
      4 C         142.9987  139.5345  162.1781 C.ar    1  UNL1        0.1194
      5 C         142.7309  138.1870  162.7803 C.ar    1  UNL1        0.0547
      6 C         141.4023  137.8999  163.4149 C.ar    1  UNL1        0.1732
      7 F         141.1345  136.5523  164.0171 F       1  UNL1       -0.2012
      8 N         144.2030  140.1044  161.4890 N.ar    1  UNL1       -0.2222
      9 C         143.8866  141.5168  161.0955 C.ar    1  UNL1        0.1800
     10 N         142.4869  141.8199  161.5414 N.ar    1  UNL1       -0.2884
     11 N         139.0133  138.6728  164.0819 N.pl3   1  UNL1       -0.2800
     12 H         138.2709  138.3276  163.5351 H       1  UNL1        0.1551
     13 C         139.1064  139.7371  167.8134 C.ar    1  UNL1        0.2216
     14 C         139.6613  139.7927  166.4209 C.ar    1  UNL1        0.0932
     15 C         138.8159  138.9117  165.5495 C.ar    1  UNL1        0.1575
     16 N         137.7386  138.3116  166.4034 N.ar    1  UNL1       -0.1550
     17 N         137.9182  138.8217  167.8026 N.ar    1  UNL1       -0.2446
     18 H         137.3550  138.5954  168.5777 H       1  UNL1        0.1920
     19 C         140.7609  139.8706  169.8121 C.3     1  UNL1        0.2542
     20 O         139.6453  140.4684  169.0070 O.3     1  UNL1       -0.4564
     21 C         141.7630  143.1199  161.3515 C.3     1  UNL1        0.1575
     22 C         140.8402  143.6275  162.4196 C.ar    1  UNL1        0.0823
     23 C         141.2857  143.6400  163.8518 C.ar    1  UNL1        0.0190
     24 C         140.3630  144.1476  164.9199 C.ar    1  UNL1        0.0325
     25 C         138.9946  144.6426  164.5557 C.ar    1  UNL1        0.1592
     26 F         138.0718  145.1502  165.6238 F       1  UNL1       -0.2025
     27 C         138.5491  144.6301  163.1234 C.ar    1  UNL1        0.1280
     28 N         139.4719  144.1225  162.0554 N.ar    1  UNL1       -0.2438
     29 C         141.9620  143.9123  160.0935 C.3     1  UNL1        0.1658
     30 O         141.7344  145.3950  160.0971 O.3     1  UNL1       -0.3796
     31 H         140.7953  145.5776  160.2571 H       1  UNL1        0.2105
@<TRIPOS>BOND
     1    19    20    1
     2    20    13    1
     3    13    14   ar
     4    14    15   ar
     5    15    11    1
     6    11     1    1
     7     1     2   ar
     8     2     3   ar
     9     3     4   ar
    10     4     5   ar
    11     5     6   ar
    12     6     7    1
    13     4     8   ar
    14     8     9   ar
    15     9    10   ar
    16    10    21    1
    17    21    29    1
    18    29    30    1
    19    21    22    1
    20    22    23   ar
    21    23    24   ar
    22    24    25   ar
    23    25    26    1
    24    25    27   ar
    25    27    28   ar
    26    15    16   ar
    27    16    17   ar
    28    17    13   ar
    29     6     1   ar
    30    28    22   ar
    31    10     3   ar
    32    11    12    1
    33    30    31    1
    34    17    18    1
@<TRIPOS>MOLECULE
*****
 31 34 0 0 0
SMALL
GASTEIGER

@<TRIPOS>ATOM
      1 C         143.6497  141.5107  163.1524 C.ar    1  UNL1        0.1626
      2 N         142.2718  140.9483  162.9650 N.ar    1  UNL1       -0.2096
      3 C         141.8864  139.6665  163.6421 C.ar    1  UNL1        0.1646
      4 C         142.8788  138.9471  164.5066 C.ar    1  UNL1        0.1194
      5 C         144.2567  139.5095  164.6941 C.ar    1  UNL1        0.0547
      6 C         144.6421  140.7913  164.0169 C.ar    1  UNL1        0.1732
      7 F         146.0201  141.3537  164.2044 F       1  UNL1       -0.2012
      8 N         142.2174  137.7122  165.0427 N.ar    1  UNL1       -0.2222
      9 C         140.8160  137.6684  164.5094 C.ar    1  UNL1        0.1800
     10 N         140.6115  138.8762  163.6438 N.ar    1  UNL1       -0.2884
     11 N         144.0350  142.7925  162.4753 N.pl3   1  UNL1       -0.2800
     12 H         144.9177  143.1936  162.6464 H       1  UNL1        0.1551
     13 C         141.1787  144.7095  160.6775 C.ar    1  UNL1        0.2216
     14 C         141.8316  144.2042  161.9297 C.ar    1  UNL1        0.0932
     15 C         143.0755  143.4632  161.5375 C.ar    1  UNL1        0.1575
     16 N         143.1913  143.5106  160.0427 N.ar    1  UNL1       -0.1550
     17 N         142.0190  144.2809  159.5112 N.ar    1  UNL1       -0.2446
     18 H         141.8336  144.4716  158.5633 H       1  UNL1        0.1920
     19 C         139.5504  146.4494  161.7125 C.3     1  UNL1        0.2542
     20 O         139.9085  145.5040  160.6043 O.3     1  UNL1       -0.4564
     21 C         139.3529  139.2314  162.9089 C.3     1  UNL1        0.1575
     22 C         138.8133  140.6293  162.9777 C.ar    1  UNL1        0.0823
     23 C         138.5088  141.2509  164.3084 C.ar    1  UNL1        0.0190
     24 C         137.9691  142.6488  164.3772 C.ar    1  UNL1        0.0325
     25 C         137.7341  143.4250  163.1153 C.ar    1  UNL1        0.1592
     26 F         137.1945  144.8229  163.1840 F       1  UNL1       -0.2025
     27 C         138.0387  142.8032  161.7846 C.ar    1  UNL1        0.1280
     28 N         138.5783  141.4054  161.7159 N.ar    1  UNL1       -0.2438
     29 C         138.6341  138.1886  162.1053 C.3     1  UNL1        0.1658
     30 O         137.2644  138.4718  161.5630 O.3     1  UNL1       -0.3796
     31 H         136.6394  138.5695  162.2983 H       1  UNL1        0.2105
@<TRIPOS>BOND
     1    19    20    1
     2    20    13    1
     3    13    14   ar
     4    14    15   ar
     5    15    11    1
     6    11     1    1
     7     1     2   ar
     8     2     3   ar
     9     3     4   ar
    10     4     5   ar
    11     5     6   ar
    12     6     7    1
    13     4     8   ar
    14     8     9   ar
    15     9    10   ar
    16    10    21    1
    17    21    29    1
    18    29    30    1
    19    21    22    1
    20    22    23   ar
    21    23    24   ar
    22    24    25   ar
    23    25    26    1
    24    25    27   ar
    25    27    28   ar
    26    15    16   ar
    27    16    17   ar
    28    17    13   ar
    29     6     1   ar
    30    28    22   ar
    31    10     3   ar
    32    11    12    1
    33    30    31    1
    34    17    18    1
@<TRIPOS>MOLECULE
*****
 31 34 0 0 0
SMALL
GASTEIGER

@<TRIPOS>ATOM
      1 C         143.0112  142.3210  167.1162 C.ar    1  UNL1        0.1626
      2 N         141.8574  141.8230  166.2972 N.ar    1  UNL1       -0.2096
      3 C         140.7898  140.9857  166.9369 C.ar    1  UNL1        0.1646
      4 C         140.8761  140.6463  168.3954 C.ar    1  UNL1        0.1194
      5 C         142.0299  141.1443  169.2144 C.ar    1  UNL1        0.0547
      6 C         143.0975  141.9816  168.5747 C.ar    1  UNL1        0.1732
      7 F         144.2514  142.4796  169.3936 F       1  UNL1       -0.2012
      8 N         139.6830  139.8083  168.7477 N.ar    1  UNL1       -0.2222
      9 C         138.8593  139.6297  167.5069 C.ar    1  UNL1        0.1800
     10 N         139.5434  140.3574  166.3877 N.ar    1  UNL1       -0.2884
     11 N         144.0788  143.1583  166.4765 N.pl3   1  UNL1       -0.2800
     12 H         144.6710  143.7120  167.0351 H       1  UNL1        0.1551
     13 C         143.9057  143.5965  162.6237 C.ar    1  UNL1        0.2216
     14 C         143.3820  143.8833  163.9997 C.ar    1  UNL1        0.0932
     15 C         144.2442  143.1520  164.9856 C.ar    1  UNL1        0.1575
     16 N         145.3007  142.4132  164.2189 N.ar    1  UNL1       -0.1550
     17 N         145.0915  142.6880  162.7591 N.ar    1  UNL1       -0.2446
     18 H         145.6368  142.3341  162.0197 H       1  UNL1        0.1920
     19 C         143.0534  143.1874  160.2038 C.3     1  UNL1        0.2542
     20 O         143.3425  144.1254  161.3381 O.3     1  UNL1       -0.4564
     21 C         139.0650  140.4418  164.9686 C.3     1  UNL1        0.1575
     22 C         139.0186  141.7687  164.2704 C.ar    1  UNL1        0.0823
     23 C         138.0263  142.8080  164.7004 C.ar    1  UNL1        0.0190
     24 C         137.9798  144.1349  164.0023 C.ar    1  UNL1        0.0325
     25 C         138.9259  144.4223  162.8742 C.ar    1  UNL1        0.1592
     26 F         138.8795  145.7491  162.1761 F       1  UNL1       -0.2025
     27 C         139.9182  143.3829  162.4443 C.ar    1  UNL1        0.1280
     28 N         139.9646  142.0561  163.1424 N.ar    1  UNL1       -0.2438
     29 C         138.6329  139.1995  164.2476 C.3     1  UNL1        0.1658
     30 O         138.2008  139.2766  162.8131 O.3     1  UNL1       -0.3796
     31 H         137.3829  139.7941  162.7492 H       1  UNL1        0.2105
@<TRIPOS>BOND
     1    19    20    1
     2    20    13    1
     3    13    14   ar
     4    14    15   ar
     5    15    11    1
     6    11     1    1
     7     1     2   ar
     8     2     3   ar
     9     3     4   ar
    10     4     5   ar
    11     5     6   ar
    12     6     7    1
    13     4     8   ar
    14     8     9   ar
    15     9    10   ar
    16    10    21    1
    17    21    29    1
    18    29    30    1
    19    21    22    1
    20    22    23   ar
    21    23    24   ar
    22    24    25   ar
    23    25    26    1
    24    25    27   ar
    25    27    28   ar
    26    15    16   ar
    27    16    17   ar
    28    17    13   ar
    29     6     1   ar
    30    28    22   ar
    31    10     3   ar
    32    11    12    1
    33    30    31    1
    34    17    18    1
