@<TRIPOS>MOLECULE
*****
 22 25 0 0 0
SMALL
GASTEIGER

@<TRIPOS>ATOM
      1 C         140.9348  141.0479  167.9580 C.3     1  UNL1        0.0353
      2 C         142.0225  140.8092  168.9629 C.3     1  UNL1        0.0225
      3 C         141.4378  140.0282  170.1022 C.3     1  UNL1        0.0689
      4 N         139.9886  139.7842  169.8014 N.3     1  UNL1       -0.2972
      5 C         139.6777  140.4144  168.4762 C.3     1  UNL1        0.0726
      6 H         139.4088  140.2032  170.5285 H       1  UNL1        0.1233
      7 C         140.0721  141.4360  166.7939 C.2     1  UNL1       -0.0387
      8 C         139.2425  140.3991  166.0966 C.2     1  UNL1       -0.0066
      9 C         138.3797  140.7872  164.9324 C.2     1  UNL1        0.0182
     10 C         138.3468  142.2123  164.4657 C.2     1  UNL1        0.0777
     11 N         137.5985  142.8875  163.3547 N.2     1  UNL1       -0.2442
     12 C         137.9658  144.3418  163.3654 C.2     1  UNL1        0.0985
     13 C         138.9410  144.5654  164.4830 C.2     1  UNL1        0.0182
     14 C         139.1765  143.2493  165.1630 C.2     1  UNL1        0.0011
     15 C         140.0391  142.8612  166.3271 C.3     1  UNL1        0.0499
     16 C         142.0114  141.7625  167.1964 C.3     1  UNL1        0.0315
     17 C         144.6986  139.4673  164.4104 C.ar    1  UNL1       -0.0000
     18 C         144.6665  140.9660  164.3562 C.ar    1  UNL1       -0.0003
     19 C         143.7707  141.7311  165.2849 C.ar    1  UNL1       -0.0043
     20 C         142.9072  140.9975  166.2677 C.ar    1  UNL1       -0.0218
     21 C         142.9393  139.4988  166.3219 C.ar    1  UNL1       -0.0043
     22 C         143.8350  138.7337  165.3933 C.ar    1  UNL1       -0.0003
@<TRIPOS>BOND
     1    17    18   ar
     2    18    19   ar
     3    19    20   ar
     4    20    16    1
     5    16     1    1
     6     1     7    1
     7     7     8    2
     8     8     9    1
     9     9    10    2
    10    10    11    1
    11    11    12    2
    12    12    13    1
    13    13    14    2
    14    14    15    1
    15     1     2    1
    16     2     3    1
    17     3     4    1
    18     4     5    1
    19    20    21   ar
    20    21    22   ar
    21    22    17   ar
    22     5     1    1
    23    15     7    1
    24    14    10    1
    25     4     6    1
@<TRIPOS>MOLECULE
*****
 22 25 0 0 0
SMALL
GASTEIGER

@<TRIPOS>ATOM
      1 C         139.5809  141.1672  165.5087 C.3     1  UNL1        0.0353
      2 C         140.0381  140.1138  166.4738 C.3     1  UNL1        0.0225
      3 C         138.9452  139.0941  166.5990 C.3     1  UNL1        0.0689
      4 N         137.8125  139.5171  165.7113 N.3     1  UNL1       -0.2972
      5 C         138.2054  140.7984  165.0374 C.3     1  UNL1        0.0726
      6 H         136.9714  139.6633  166.2693 H       1  UNL1        0.1233
      7 C         139.4034  142.3493  164.6025 C.2     1  UNL1       -0.0387
      8 C         138.1762  143.2041  164.7165 C.2     1  UNL1       -0.0066
      9 C         137.9987  144.3862  163.8103 C.2     1  UNL1        0.0182
     10 C         139.0484  144.7134  162.7900 C.2     1  UNL1        0.0777
     11 N         139.1482  145.8063  161.7675 N.2     1  UNL1       -0.2442
     12 C         140.4371  145.6268  161.0215 C.2     1  UNL1        0.0985
     13 C         141.1339  144.4230  161.5830 C.2     1  UNL1        0.0182
     14 C         140.2757  143.8584  162.6760 C.2     1  UNL1        0.0011
     15 C         140.4531  142.6764  163.5823 C.3     1  UNL1        0.0499
     16 C         140.9192  141.7831  165.7905 C.3     1  UNL1        0.0315
     17 C         141.9315  143.1576  169.9542 C.ar    1  UNL1       -0.0000
     18 C         140.5656  143.4155  169.3906 C.ar    1  UNL1       -0.0003
     19 C         140.2282  142.9574  168.0027 C.ar    1  UNL1       -0.0043
     20 C         141.2566  142.2413  167.1784 C.ar    1  UNL1       -0.0218
     21 C         142.6225  141.9833  167.7421 C.ar    1  UNL1       -0.0043
     22 C         142.9601  142.4414  169.1299 C.ar    1  UNL1       -0.0003
@<TRIPOS>BOND
     1    17    18   ar
     2    18    19   ar
     3    19    20   ar
     4    20    16    1
     5    16     1    1
     6     1     7    1
     7     7     8    2
     8     8     9    1
     9     9    10    2
    10    10    11    1
    11    11    12    2
    12    12    13    1
    13    13    14    2
    14    14    15    1
    15     1     2    1
    16     2     3    1
    17     3     4    1
    18     4     5    1
    19    20    21   ar
    20    21    22   ar
    21    22    17   ar
    22     5     1    1
    23    15     7    1
    24    14    10    1
    25     4     6    1
@<TRIPOS>MOLECULE
*****
 22 25 0 0 0
SMALL
GASTEIGER

@<TRIPOS>ATOM
      1 C         139.3375  139.2777  164.8434 C.3     1  UNL1        0.0353
      2 C         138.4598  139.2859  163.6270 C.3     1  UNL1        0.0225
      3 C         138.9361  138.2033  162.7044 C.3     1  UNL1        0.0689
      4 N         140.1082  137.5260  163.3506 N.3     1  UNL1       -0.2972
      5 C         140.3563  138.1900  164.6725 C.3     1  UNL1        0.0726
      6 H         140.9322  137.6187  162.7566 H       1  UNL1        0.1233
      7 C         140.0327  139.5068  166.1527 C.2     1  UNL1       -0.0387
      8 C         141.5277  139.4166  166.2340 C.2     1  UNL1       -0.0066
      9 C         142.2229  139.6458  167.5433 C.2     1  UNL1        0.0182
     10 C         141.4229  139.9651  168.7713 C.2     1  UNL1        0.0777
     11 N         141.8274  140.2384  170.1897 N.2     1  UNL1       -0.2442
     12 C         140.5822  140.4975  170.9850 C.2     1  UNL1        0.0985
     13 C         139.4082  140.3844  170.0582 C.2     1  UNL1        0.0182
     14 C         139.9278  140.0553  168.6900 C.2     1  UNL1        0.0011
     15 C         139.2327  139.8262  167.3807 C.3     1  UNL1        0.0499
     16 C         138.4641  140.4132  165.2880 C.3     1  UNL1        0.0315
     17 C         139.1018  144.5360  163.6009 C.ar    1  UNL1       -0.0000
     18 C         137.7764  143.8538  163.4335 C.ar    1  UNL1       -0.0003
     19 C         137.5639  142.4796  163.9958 C.ar    1  UNL1       -0.0043
     20 C         138.6767  141.7875  164.7256 C.ar    1  UNL1       -0.0218
     21 C         140.0020  142.4697  164.8931 C.ar    1  UNL1       -0.0043
     22 C         140.2147  143.8440  164.3308 C.ar    1  UNL1       -0.0003
@<TRIPOS>BOND
     1    17    18   ar
     2    18    19   ar
     3    19    20   ar
     4    20    16    1
     5    16     1    1
     6     1     7    1
     7     7     8    2
     8     8     9    1
     9     9    10    2
    10    10    11    1
    11    11    12    2
    12    12    13    1
    13    13    14    2
    14    14    15    1
    15     1     2    1
    16     2     3    1
    17     3     4    1
    18     4     5    1
    19    20    21   ar
    20    21    22   ar
    21    22    17   ar
    22     5     1    1
    23    15     7    1
    24    14    10    1
    25     4     6    1
@<TRIPOS>MOLECULE
*****
 22 25 0 0 0
SMALL
GASTEIGER

@<TRIPOS>ATOM
      1 C         141.4859  139.6502  167.1696 C.3     1  UNL1        0.0353
      2 C         142.6587  139.4709  168.0874 C.3     1  UNL1        0.0225
      3 C         142.2115  139.8002  169.4808 C.3     1  UNL1        0.0689
      4 N         140.7622  140.1830  169.4242 N.3     1  UNL1       -0.2972
      5 C         140.3138  140.0903  167.9958 C.3     1  UNL1        0.0726
      6 H         140.6429  141.1375  169.7632 H       1  UNL1        0.1233
      7 C         140.5156  139.7415  166.0292 C.2     1  UNL1       -0.0387
      8 C         139.6922  140.9812  165.8426 C.2     1  UNL1       -0.0066
      9 C         138.7219  141.0726  164.7022 C.2     1  UNL1        0.0182
     10 C         138.5752  139.9240  163.7486 C.2     1  UNL1        0.0777
     11 N         137.7074  139.7267  162.5412 N.2     1  UNL1       -0.2442
     12 C         137.9945  138.3649  161.9816 C.2     1  UNL1        0.0985
     13 C         139.0398  137.7206  162.8433 C.2     1  UNL1        0.0182
     14 C         139.3987  138.6843  163.9353 C.2     1  UNL1        0.0011
     15 C         140.3689  138.5930  165.0757 C.3     1  UNL1        0.0499
     16 C         142.4551  139.2293  166.1050 C.3     1  UNL1        0.0315
     17 C         145.2143  142.2607  164.2482 C.ar    1  UNL1       -0.0000
     18 C         144.1450  142.7047  165.2018 C.ar    1  UNL1       -0.0003
     19 C         143.2252  141.6942  165.8208 C.ar    1  UNL1       -0.0043
     20 C         143.3748  140.2397  165.4861 C.ar    1  UNL1       -0.0218
     21 C         144.4441  139.7957  164.5325 C.ar    1  UNL1       -0.0043
     22 C         145.3639  140.8061  163.9135 C.ar    1  UNL1       -0.0003
@<TRIPOS>BOND
     1    17    18   ar
     2    18    19   ar
     3    19    20   ar
     4    20    16    1
     5    16     1    1
     6     1     7    1
     7     7     8    2
     8     8     9    1
     9     9    10    2
    10    10    11    1
    11    11    12    2
    12    12    13    1
    13    13    14    2
    14    14    15    1
    15     1     2    1
    16     2     3    1
    17     3     4    1
    18     4     5    1
    19    20    21   ar
    20    21    22   ar
    21    22    17   ar
    22     5     1    1
    23    15     7    1
    24    14    10    1
    25     4     6    1
@<TRIPOS>MOLECULE
*****
 22 25 0 0 0
SMALL
GASTEIGER

@<TRIPOS>ATOM
      1 C         141.0185  141.0198  168.1210 C.3     1  UNL1        0.0353
      2 C         142.0349  140.6156  169.1473 C.3     1  UNL1        0.0225
      3 C         141.3353  139.8064  170.1989 C.3     1  UNL1        0.0689
      4 N         139.8865  139.7105  169.8224 N.3     1  UNL1       -0.2972
      5 C         139.6906  140.4605  168.5382 C.3     1  UNL1        0.0726
      6 H         139.3102  140.1235  170.5557 H       1  UNL1        0.1233
      7 C         140.2458  141.5649  166.9565 C.2     1  UNL1       -0.0387
      8 C         140.2419  143.0397  166.6833 C.2     1  UNL1       -0.0066
      9 C         139.4692  143.5848  165.5188 C.2     1  UNL1        0.0182
     10 C         138.7005  142.6548  164.6276 C.2     1  UNL1        0.0777
     11 N         137.8529  142.8992  163.4144 N.2     1  UNL1       -0.2442
     12 C         137.3330  141.5754  162.9378 C.2     1  UNL1        0.0985
     13 C         137.8593  140.5128  163.8565 C.2     1  UNL1        0.0182
     14 C         138.7045  141.1799  164.9008 C.2     1  UNL1        0.0011
     15 C         139.4771  140.6350  166.0653 C.3     1  UNL1        0.0499
     16 C         142.1847  141.6931  167.4603 C.3     1  UNL1        0.0315
     17 C         144.5601  139.5115  164.3220 C.ar    1  UNL1       -0.0000
     18 C         143.7903  138.7390  165.3519 C.ar    1  UNL1       -0.0003
     19 C         142.9985  139.4662  166.3980 C.ar    1  UNL1       -0.0043
     20 C         142.9765  140.9659  166.4142 C.ar    1  UNL1       -0.0218
     21 C         143.7463  141.7384  165.3844 C.ar    1  UNL1       -0.0043
     22 C         144.5381  141.0113  164.3383 C.ar    1  UNL1       -0.0003
@<TRIPOS>BOND
     1    17    18   ar
     2    18    19   ar
     3    19    20   ar
     4    20    16    1
     5    16     1    1
     6     1     7    1
     7     7     8    2
     8     8     9    1
     9     9    10    2
    10    10    11    1
    11    11    12    2
    12    12    13    1
    13    13    14    2
    14    14    15    1
    15     1     2    1
    16     2     3    1
    17     3     4    1
    18     4     5    1
    19    20    21   ar
    20    21    22   ar
    21    22    17   ar
    22     5     1    1
    23    15     7    1
    24    14    10    1
    25     4     6    1
@<TRIPOS>MOLECULE
*****
 22 25 0 0 0
SMALL
GASTEIGER

@<TRIPOS>ATOM
      1 C         141.3584  141.8601  167.9019 C.3     1  UNL1        0.0353
      2 C         140.1973  142.1969  168.7897 C.3     1  UNL1        0.0225
      3 C         140.7301  142.8992  170.0033 C.3     1  UNL1        0.0689
      4 N         142.2206  142.9965  169.8655 N.3     1  UNL1       -0.2972
      5 C         142.6090  142.3543  168.5668 C.3     1  UNL1        0.0726
      6 H         142.6723  142.5110  170.6405 H       1  UNL1        0.1233
      7 C         142.2994  141.3999  166.8282 C.2     1  UNL1       -0.0387
      8 C         142.3700  139.9462  166.4653 C.2     1  UNL1       -0.0066
      9 C         143.3110  139.4860  165.3916 C.2     1  UNL1        0.0182
     10 C         144.1813  140.4796  164.6807 C.2     1  UNL1        0.0777
     11 N         145.1977  140.3232  163.5887 N.2     1  UNL1       -0.2442
     12 C         145.7552  141.6804  163.2767 C.2     1  UNL1        0.0985
     13 C         145.0834  142.6755  164.1758 C.2     1  UNL1        0.0182
     14 C         144.1107  141.9333  165.0436 C.2     1  UNL1        0.0011
     15 C         143.1697  142.3935  166.1173 C.3     1  UNL1        0.0499
     16 C         140.3047  141.2697  167.0126 C.3     1  UNL1        0.0315
     17 C         138.0481  143.9021  164.1440 C.ar    1  UNL1       -0.0000
     18 C         139.0213  144.5082  165.1113 C.ar    1  UNL1       -0.0003
     19 C         139.7735  143.6307  166.0675 C.ar    1  UNL1       -0.0043
     20 C         139.5525  142.1471  166.0564 C.ar    1  UNL1       -0.0218
     21 C         138.5794  141.5410  165.0891 C.ar    1  UNL1       -0.0043
     22 C         137.8272  142.4184  164.1329 C.ar    1  UNL1       -0.0003
@<TRIPOS>BOND
     1    17    18   ar
     2    18    19   ar
     3    19    20   ar
     4    20    16    1
     5    16     1    1
     6     1     7    1
     7     7     8    2
     8     8     9    1
     9     9    10    2
    10    10    11    1
    11    11    12    2
    12    12    13    1
    13    13    14    2
    14    14    15    1
    15     1     2    1
    16     2     3    1
    17     3     4    1
    18     4     5    1
    19    20    21   ar
    20    21    22   ar
    21    22    17   ar
    22     5     1    1
    23    15     7    1
    24    14    10    1
    25     4     6    1
@<TRIPOS>MOLECULE
*****
 22 25 0 0 0
SMALL
GASTEIGER

@<TRIPOS>ATOM
      1 C         141.4855  140.6905  168.3324 C.3     1  UNL1        0.0353
      2 C         140.4252  141.0502  169.3305 C.3     1  UNL1        0.0225
      3 C         140.6013  140.1690  170.5316 C.3     1  UNL1        0.0689
      4 N         141.7704  139.2647  170.2757 N.3     1  UNL1       -0.2972
      5 C         142.3169  139.5870  168.9165 C.3     1  UNL1        0.0726
      6 H         141.4679  138.2911  170.3052 H       1  UNL1        0.1233
      7 C         142.4125  140.5556  167.1608 C.2     1  UNL1       -0.0387
      8 C         142.7553  139.1959  166.6283 C.2     1  UNL1       -0.0066
      9 C         143.6823  139.0610  165.4568 C.2     1  UNL1        0.0182
     10 C         144.2666  140.2859  164.8179 C.2     1  UNL1        0.0777
     11 N         145.2024  140.4642  163.6592 N.2     1  UNL1       -0.2442
     12 C         145.4380  141.9342  163.4757 C.2     1  UNL1        0.0985
     13 C         144.6479  142.6644  164.5209 C.2     1  UNL1        0.0182
     14 C         143.9239  141.6457  165.3504 C.2     1  UNL1        0.0011
     15 C         142.9968  141.7805  166.5219 C.3     1  UNL1        0.0499
     16 C         140.8480  141.7657  167.5033 C.3     1  UNL1        0.0315
     17 C         137.8586  140.6778  164.3205 C.ar    1  UNL1       -0.0000
     18 C         138.1989  139.6917  165.3983 C.ar    1  UNL1       -0.0003
     19 C         139.1954  140.0543  166.4593 C.ar    1  UNL1       -0.0043
     20 C         139.8515  141.4031  166.4424 C.ar    1  UNL1       -0.0218
     21 C         139.5112  142.3892  165.3645 C.ar    1  UNL1       -0.0043
     22 C         138.5147  142.0266  164.3035 C.ar    1  UNL1       -0.0003
@<TRIPOS>BOND
     1    17    18   ar
     2    18    19   ar
     3    19    20   ar
     4    20    16    1
     5    16     1    1
     6     1     7    1
     7     7     8    2
     8     8     9    1
     9     9    10    2
    10    10    11    1
    11    11    12    2
    12    12    13    1
    13    13    14    2
    14    14    15    1
    15     1     2    1
    16     2     3    1
    17     3     4    1
    18     4     5    1
    19    20    21   ar
    20    21    22   ar
    21    22    17   ar
    22     5     1    1
    23    15     7    1
    24    14    10    1
    25     4     6    1
@<TRIPOS>MOLECULE
*****
 22 25 0 0 0
SMALL
GASTEIGER

@<TRIPOS>ATOM
      1 C         139.3299  138.9336  164.1140 C.3     1  UNL1        0.0353
      2 C         139.2557  137.8136  163.1191 C.3     1  UNL1        0.0225
      3 C         138.2151  138.1682  162.0987 C.3     1  UNL1        0.0689
      4 N         137.6460  139.5075  162.4630 N.3     1  UNL1       -0.2972
      5 C         138.3350  139.9805  163.7085 C.3     1  UNL1        0.0726
      6 H         136.6438  139.4232  162.6325 H       1  UNL1        0.1233
      7 C         139.6249  139.8761  165.2431 C.2     1  UNL1       -0.0387
      8 C         140.2389  141.2153  164.9613 C.2     1  UNL1       -0.0066
      9 C         140.5338  142.1577  166.0905 C.2     1  UNL1        0.0182
     10 C         140.2148  141.7609  167.5014 C.2     1  UNL1        0.0777
     11 N         140.3913  142.4743  168.8090 N.2     1  UNL1       -0.2442
     12 C         139.8863  141.5760  169.8989 C.2     1  UNL1        0.0985
     13 C         139.3977  140.3073  169.2650 C.2     1  UNL1        0.0182
     14 C         139.6007  140.4216  167.7832 C.2     1  UNL1        0.0011
     15 C         139.3058  139.4792  166.6540 C.3     1  UNL1        0.0499
     16 C         140.3863  138.0839  164.7556 C.3     1  UNL1        0.0315
     17 C         144.7310  139.1564  164.2818 C.ar    1  UNL1       -0.0000
     18 C         143.8295  139.1317  163.0831 C.ar    1  UNL1       -0.0003
     19 C         142.3813  138.7742  163.2411 C.ar    1  UNL1       -0.0043
     20 C         141.8346  138.4414  164.5976 C.ar    1  UNL1       -0.0218
     21 C         142.7360  138.4660  165.7963 C.ar    1  UNL1       -0.0043
     22 C         144.1843  138.8235  165.6384 C.ar    1  UNL1       -0.0003
@<TRIPOS>BOND
     1    17    18   ar
     2    18    19   ar
     3    19    20   ar
     4    20    16    1
     5    16     1    1
     6     1     7    1
     7     7     8    2
     8     8     9    1
     9     9    10    2
    10    10    11    1
    11    11    12    2
    12    12    13    1
    13    13    14    2
    14    14    15    1
    15     1     2    1
    16     2     3    1
    17     3     4    1
    18     4     5    1
    19    20    21   ar
    20    21    22   ar
    21    22    17   ar
    22     5     1    1
    23    15     7    1
    24    14    10    1
    25     4     6    1
@<TRIPOS>MOLECULE
*****
 22 25 0 0 0
SMALL
GASTEIGER

@<TRIPOS>ATOM
      1 C         140.5420  141.3983  168.2344 C.3     1  UNL1        0.0353
      2 C         140.5692  142.5821  169.1552 C.3     1  UNL1        0.0225
      3 C         139.6766  142.2817  170.3227 C.3     1  UNL1        0.0689
      4 N         139.0977  140.9123  170.1234 N.3     1  UNL1       -0.2972
      5 C         139.6325  140.3663  168.8328 C.3     1  UNL1        0.0726
      6 H         138.0802  140.9696  170.0798 H       1  UNL1        0.1233
      7 C         140.7123  140.3860  167.1406 C.2     1  UNL1       -0.0387
      8 C         142.0479  139.7412  166.9168 C.2     1  UNL1       -0.0066
      9 C         142.2182  138.7288  165.8231 C.2     1  UNL1        0.0182
     10 C         141.0528  138.3614  164.9532 C.2     1  UNL1        0.0777
     11 N         140.9191  137.4045  163.8058 N.2     1  UNL1       -0.2442
     12 C         139.5008  137.4580  163.3205 C.2     1  UNL1        0.0985
     13 C         138.7579  138.4480  164.1679 C.2     1  UNL1        0.0182
     14 C         139.7171  139.0063  165.1770 C.2     1  UNL1        0.0011
     15 C         139.5469  140.0186  166.2707 C.3     1  UNL1        0.0499
     16 C         141.4870  142.2186  167.4074 C.3     1  UNL1        0.0315
     17 C         139.9480  144.5466  163.8772 C.ar    1  UNL1       -0.0000
     18 C         139.1222  144.4432  165.1251 C.ar    1  UNL1       -0.0003
     19 C         139.6352  143.6672  166.3019 C.ar    1  UNL1       -0.0043
     20 C         140.9740  142.9946  166.2306 C.ar    1  UNL1       -0.0218
     21 C         141.7998  143.0979  164.9827 C.ar    1  UNL1       -0.0043
     22 C         141.2869  143.8739  163.8059 C.ar    1  UNL1       -0.0003
@<TRIPOS>BOND
     1    17    18   ar
     2    18    19   ar
     3    19    20   ar
     4    20    16    1
     5    16     1    1
     6     1     7    1
     7     7     8    2
     8     8     9    1
     9     9    10    2
    10    10    11    1
    11    11    12    2
    12    12    13    1
    13    13    14    2
    14    14    15    1
    15     1     2    1
    16     2     3    1
    17     3     4    1
    18     4     5    1
    19    20    21   ar
    20    21    22   ar
    21    22    17   ar
    22     5     1    1
    23    15     7    1
    24    14    10    1
    25     4     6    1
