@<TRIPOS>MOLECULE
*****
 39 42 0 0 0
SMALL
GASTEIGER

@<TRIPOS>ATOM
      1 C         138.9727  142.5915  161.5786 C.2     1  UNL1        0.2485
      2 O         137.9508  143.6890  161.5497 O.2     1  UNL1       -0.2726
      3 N         139.9815  142.4768  160.4743 N.am    1  UNL1       -0.2823
      4 H         140.6523  141.7564  160.4932 H       1  UNL1        0.1549
      5 C         137.5035  138.0665  161.5389 C.3     1  UNL1        0.0949
      6 C         137.9385  139.4991  161.4477 C.2     1  UNL1        0.2269
      7 O         137.8012  140.2436  160.1528 O.2     1  UNL1       -0.2748
      8 N         138.5107  140.1873  162.6515 N.am    1  UNL1       -0.2655
      9 C         138.7080  139.5748  164.0065 C.3     1  UNL1        0.1206
     10 C         139.3053  140.6177  164.9040 C.ar    1  UNL1       -0.0030
     11 C         139.7149  140.5851  166.3466 C.ar    1  UNL1        0.0155
     12 C         140.2964  141.8095  166.9890 C.ar    1  UNL1        0.1053
     13 C         140.4683  143.0665  166.1887 C.ar    1  UNL1        0.0181
     14 C         140.0587  143.0991  164.7461 C.ar    1  UNL1       -0.0011
     15 C         139.4772  141.8747  164.1038 C.ar    1  UNL1        0.0022
     16 C         138.9861  141.6086  162.7116 C.3     1  UNL1        0.1750
     17 S         140.7060  141.7770  168.4316 S.O2    1  UNL1        0.0070
     18 O         140.3613  143.2309  168.5624 O.2     1  UNL1       -0.1687
     19 O         141.0508  140.3230  168.3009 O.2     1  UNL1       -0.1687
     20 C         141.1157  141.7444  169.8742 C.3     1  UNL1        0.1339
     21 C         142.0953  142.0950  170.9547 C.3     1  UNL1        0.0257
     22 C         140.8456  141.3374  171.2924 C.3     1  UNL1        0.0257
     23 C         139.9681  143.4596  159.3412 C.ar    1  UNL1        0.0503
     24 C         139.2092  143.1467  158.0858 C.ar    1  UNL1        0.0144
     25 C         139.1959  144.1296  156.9527 C.ar    1  UNL1       -0.0002
     26 C         139.9414  145.4253  157.0752 C.ar    1  UNL1        0.0182
     27 C         140.7004  145.7383  158.3306 C.ar    1  UNL1       -0.0002
     28 C         140.7137  144.7554  159.4636 C.ar    1  UNL1        0.0144
     29 C         139.9281  146.4083  155.9421 C.3     1  UNL1        0.2827
     30 O         139.3336  147.4451  156.8485 O.3     1  UNL1       -0.3692
     31 H         139.1974  148.2678  156.3530 H       1  UNL1        0.2112
     32 C         139.9149  147.3911  154.8091 C.3     1  UNL1        0.4311
     33 F         139.9016  148.3740  153.6760 F       1  UNL1       -0.1669
     34 F         138.4160  147.4240  154.8551 F       1  UNL1       -0.1669
     35 F         140.7924  147.4426  154.7005 F       1  UNL1       -0.1669
     36 C         140.5226  145.3714  155.0358 C.3     1  UNL1        0.4311
     37 F         141.1172  144.3345  154.1294 F       1  UNL1       -0.1669
     38 F         141.3189  145.3342  155.4219 F       1  UNL1       -0.1669
     39 F         139.4191  145.0584  154.0691 F       1  UNL1       -0.1669
@<TRIPOS>BOND
     1     5     6    1
     2     6     7    2
     3     6     8   am
     4     8     9    1
     5     9    10    1
     6    10    11   ar
     7    11    12   ar
     8    12    17    1
     9    17    18    2
    10    17    19    2
    11    17    20    1
    12    20    21    1
    13    21    22    1
    14    12    13   ar
    15    13    14   ar
    16    14    15   ar
    17    15    16    1
    18    16     1    1
    19     1     2    2
    20     1     3   am
    21     3    23    1
    22    23    24   ar
    23    24    25   ar
    24    25    26   ar
    25    26    29    1
    26    29    30    1
    27    29    32    1
    28    32    33    1
    29    32    34    1
    30    32    35    1
    31    29    36    1
    32    36    37    1
    33    36    38    1
    34    36    39    1
    35    26    27   ar
    36    27    28   ar
    37    16     8    1
    38    28    23   ar
    39    15    10   ar
    40    22    20    1
    41     3     4    1
    42    30    31    1
@<TRIPOS>MOLECULE
*****
 39 42 0 0 0
SMALL
GASTEIGER

@<TRIPOS>ATOM
      1 C         141.6758  139.1077  158.6590 C.2     1  UNL1        0.2485
      2 O         142.3923  138.1591  159.5737 O.2     1  UNL1       -0.2726
      3 N         140.4883  139.8770  159.1573 N.am    1  UNL1       -0.2823
      4 H         140.0179  140.4996  158.5570 H       1  UNL1        0.1549
      5 C         139.6194  137.5255  154.6711 C.3     1  UNL1        0.0949
      6 C         140.1871  137.9789  155.9833 C.2     1  UNL1        0.2269
      7 O         139.4797  137.6430  157.2627 O.2     1  UNL1       -0.2748
      8 N         141.4622  138.7682  156.0163 N.am    1  UNL1       -0.2655
      9 C         142.2770  139.1772  154.8251 C.3     1  UNL1        0.1206
     10 C         143.4648  139.9488  155.3188 C.ar    1  UNL1       -0.0030
     11 C         144.6094  140.5984  154.5992 C.ar    1  UNL1        0.0155
     12 C         145.6733  141.3158  155.3759 C.ar    1  UNL1        0.1053
     13 C         145.5927  141.3837  156.8721 C.ar    1  UNL1        0.0181
     14 C         144.4481  140.7341  157.5918 C.ar    1  UNL1       -0.0011
     15 C         143.3841  140.0167  156.8151 C.ar    1  UNL1        0.0022
     16 C         142.1465  139.2870  157.2461 C.3     1  UNL1        0.1750
     17 S         146.8180  141.9655  154.6562 S.O2    1  UNL1        0.0070
     18 O         146.3602  141.3464  153.3690 O.2     1  UNL1       -0.1687
     19 O         147.2759  142.5845  155.9435 O.2     1  UNL1       -0.1687
     20 C         147.9626  142.6151  153.9367 C.3     1  UNL1        0.1339
     21 C         149.3885  142.5872  153.4717 C.3     1  UNL1        0.0257
     22 C         148.5194  143.7681  153.1554 C.3     1  UNL1        0.0257
     23 C         140.0176  139.6977  160.5702 C.ar    1  UNL1        0.0503
     24 C         140.7691  140.3399  161.6984 C.ar    1  UNL1        0.0144
     25 C         140.2984  140.1606  163.1113 C.ar    1  UNL1       -0.0002
     26 C         139.0761  139.3390  163.3959 C.ar    1  UNL1        0.0182
     27 C         138.3246  138.6968  162.2678 C.ar    1  UNL1       -0.0002
     28 C         138.7953  138.8761  160.8549 C.ar    1  UNL1        0.0144
     29 C         138.6053  139.1596  164.8088 C.3     1  UNL1        0.2827
     30 O         137.6877  140.3359  164.6525 O.3     1  UNL1       -0.3692
     31 H         137.2029  140.4800  165.4802 H       1  UNL1        0.2112
     32 C         138.1346  138.9801  166.2217 C.3     1  UNL1        0.4311
     33 F         137.6638  138.8007  167.6346 F       1  UNL1       -0.1669
     34 F         138.7910  140.2734  166.6047 F       1  UNL1       -0.1669
     35 F         137.7160  138.2093  166.0990 F       1  UNL1       -0.1669
     36 C         139.5229  137.9833  164.9651 C.3     1  UNL1        0.4311
     37 F         140.4404  136.8070  165.1214 F       1  UNL1       -0.1669
     38 F         139.0302  137.4014  164.5143 F       1  UNL1       -0.1669
     39 F         140.6699  138.5218  165.7678 F       1  UNL1       -0.1669
@<TRIPOS>BOND
     1     5     6    1
     2     6     7    2
     3     6     8   am
     4     8     9    1
     5     9    10    1
     6    10    11   ar
     7    11    12   ar
     8    12    17    1
     9    17    18    2
    10    17    19    2
    11    17    20    1
    12    20    21    1
    13    21    22    1
    14    12    13   ar
    15    13    14   ar
    16    14    15   ar
    17    15    16    1
    18    16     1    1
    19     1     2    2
    20     1     3   am
    21     3    23    1
    22    23    24   ar
    23    24    25   ar
    24    25    26   ar
    25    26    29    1
    26    29    30    1
    27    29    32    1
    28    32    33    1
    29    32    34    1
    30    32    35    1
    31    29    36    1
    32    36    37    1
    33    36    38    1
    34    36    39    1
    35    26    27   ar
    36    27    28   ar
    37    16     8    1
    38    28    23   ar
    39    15    10   ar
    40    22    20    1
    41     3     4    1
    42    30    31    1
@<TRIPOS>MOLECULE
*****
 39 42 0 0 0
SMALL
GASTEIGER

@<TRIPOS>ATOM
      1 C         142.5562  138.0233  158.1992 C.2     1  UNL1        0.2485
      2 O         143.7303  138.9088  157.9039 O.2     1  UNL1       -0.2726
      3 N         141.9027  138.0694  159.5487 N.am    1  UNL1       -0.2823
      4 H         141.1321  137.4882  159.7426 H       1  UNL1        0.1549
      5 C         138.8026  138.6477  155.3433 C.3     1  UNL1        0.0949
      6 C         139.9642  138.5470  156.2869 C.2     1  UNL1        0.2269
      7 O         140.2459  139.6609  157.2511 O.2     1  UNL1       -0.2748
      8 N         140.8441  137.3324  156.2662 N.am    1  UNL1       -0.2655
      9 C         140.6872  136.1451  155.3629 C.3     1  UNL1        0.1206
     10 C         141.7815  135.1707  155.6837 C.ar    1  UNL1       -0.0030
     11 C         142.1269  133.8264  155.1150 C.ar    1  UNL1        0.0155
     12 C         143.3056  133.0670  155.6479 C.ar    1  UNL1        0.1053
     13 C         144.1389  133.6520  156.7494 C.ar    1  UNL1        0.0181
     14 C         143.7936  134.9963  157.3181 C.ar    1  UNL1       -0.0011
     15 C         142.6149  135.7557  156.7852 C.ar    1  UNL1        0.0022
     16 C         142.0355  137.0916  157.1452 C.3     1  UNL1        0.1750
     17 S         143.6510  131.7225  155.0793 S.O2    1  UNL1        0.0070
     18 O         144.9850  131.7761  155.7628 O.2     1  UNL1       -0.1687
     19 O         142.3169  131.6690  154.3957 O.2     1  UNL1       -0.1687
     20 C         143.9963  130.3782  154.5106 C.3     1  UNL1        0.1339
     21 C         144.5830  129.5451  153.4099 C.3     1  UNL1        0.0257
     22 C         144.0077  128.8827  154.6265 C.3     1  UNL1        0.0257
     23 C         142.4234  139.0011  160.6027 C.ar    1  UNL1        0.0503
     24 C         141.7177  140.2967  160.8734 C.ar    1  UNL1        0.0144
     25 C         142.2384  141.2284  161.9274 C.ar    1  UNL1       -0.0002
     26 C         143.4647  140.8644  162.7106 C.ar    1  UNL1        0.0182
     27 C         144.1704  139.5687  162.4399 C.ar    1  UNL1       -0.0002
     28 C         143.6497  138.6370  161.3859 C.ar    1  UNL1        0.0144
     29 C         143.9855  141.7960  163.7646 C.3     1  UNL1        0.2827
     30 O         143.5317  140.8435  164.8309 O.3     1  UNL1       -0.3692
     31 H         143.7514  141.2062  165.7033 H       1  UNL1        0.2112
     32 C         144.5062  142.7277  164.8186 C.3     1  UNL1        0.4311
     33 F         145.0270  143.6593  165.8725 F       1  UNL1       -0.1669
     34 F         143.1061  142.9621  165.3032 F       1  UNL1       -0.1669
     35 F         145.3643  142.6574  164.6105 F       1  UNL1       -0.1669
     36 C         144.4392  142.7485  162.6984 C.3     1  UNL1        0.4311
     37 F         144.8930  143.7010  161.6322 F       1  UNL1       -0.1669
     38 F         145.1072  142.2552  162.3901 F       1  UNL1       -0.1669
     39 F         143.4973  143.9092  162.8237 F       1  UNL1       -0.1669
@<TRIPOS>BOND
     1     5     6    1
     2     6     7    2
     3     6     8   am
     4     8     9    1
     5     9    10    1
     6    10    11   ar
     7    11    12   ar
     8    12    17    1
     9    17    18    2
    10    17    19    2
    11    17    20    1
    12    20    21    1
    13    21    22    1
    14    12    13   ar
    15    13    14   ar
    16    14    15   ar
    17    15    16    1
    18    16     1    1
    19     1     2    2
    20     1     3   am
    21     3    23    1
    22    23    24   ar
    23    24    25   ar
    24    25    26   ar
    25    26    29    1
    26    29    30    1
    27    29    32    1
    28    32    33    1
    29    32    34    1
    30    32    35    1
    31    29    36    1
    32    36    37    1
    33    36    38    1
    34    36    39    1
    35    26    27   ar
    36    27    28   ar
    37    16     8    1
    38    28    23   ar
    39    15    10   ar
    40    22    20    1
    41     3     4    1
    42    30    31    1
@<TRIPOS>MOLECULE
*****
 39 42 0 0 0
SMALL
GASTEIGER

@<TRIPOS>ATOM
      1 C         142.3477  138.0726  157.3762 C.2     1  UNL1        0.2485
      2 O         141.1375  138.3810  158.2069 O.2     1  UNL1       -0.2726
      3 N         143.6144  138.8503  157.5786 N.am    1  UNL1       -0.2823
      4 H         144.4087  138.6480  157.0334 H       1  UNL1        0.1549
      5 C         140.5590  138.3174  152.9743 C.3     1  UNL1        0.0949
      6 C         141.0951  138.3434  154.3750 C.2     1  UNL1        0.2269
      7 O         141.0107  139.6017  155.1871 O.2     1  UNL1       -0.2748
      8 N         141.7157  137.1111  154.9635 N.am    1  UNL1       -0.2655
      9 C         141.8694  135.7869  154.2759 C.3     1  UNL1        0.1206
     10 C         142.5402  134.8440  155.2304 C.ar    1  UNL1       -0.0030
     11 C         142.9472  133.4061  155.1013 C.ar    1  UNL1        0.0155
     12 C         143.6150  132.7097  156.2498 C.ar    1  UNL1        0.1053
     13 C         143.8758  133.4512  157.5273 C.ar    1  UNL1        0.0181
     14 C         143.4688  134.8891  157.6564 C.ar    1  UNL1       -0.0011
     15 C         142.8010  135.5855  156.5080 C.ar    1  UNL1        0.0022
     16 C         142.2914  136.9866  156.3430 C.3     1  UNL1        0.1750
     17 S         144.0220  131.2717  156.1207 S.O2    1  UNL1        0.0070
     18 O         142.5784  130.8680  156.0652 O.2     1  UNL1       -0.1687
     19 O         145.4655  131.6754  156.1762 O.2     1  UNL1       -0.1687
     20 C         144.4290  129.8338  155.9916 C.3     1  UNL1        0.1339
     21 C         144.6667  128.4901  156.6145 C.3     1  UNL1        0.0257
     22 C         144.8964  128.6869  155.1453 C.3     1  UNL1        0.0257
     23 C         143.6707  139.9363  158.6118 C.ar    1  UNL1        0.0503
     24 C         143.5213  139.5972  160.0653 C.ar    1  UNL1        0.0144
     25 C         143.5776  140.6832  161.0985 C.ar    1  UNL1       -0.0002
     26 C         143.7833  142.1082  160.6781 C.ar    1  UNL1        0.0182
     27 C         143.9327  142.4474  159.2246 C.ar    1  UNL1       -0.0002
     28 C         143.8764  141.3614  158.1914 C.ar    1  UNL1        0.0144
     29 C         143.8396  143.1943  161.7113 C.3     1  UNL1        0.2827
     30 O         142.7522  143.9355  160.9915 O.3     1  UNL1       -0.3692
     31 H         142.5522  144.7574  161.4662 H       1  UNL1        0.2112
     32 C         143.8960  144.2803  162.7444 C.3     1  UNL1        0.4311
     33 F         143.9524  145.3663  163.7776 F       1  UNL1       -0.1669
     34 F         142.5354  143.8836  163.2357 F       1  UNL1       -0.1669
     35 F         144.6975  144.5911  162.5309 F       1  UNL1       -0.1669
     36 C         144.9270  142.4531  162.4311 C.3     1  UNL1        0.4311
     37 F         146.0145  141.7118  163.1508 F       1  UNL1       -0.1669
     38 F         145.5397  142.5152  161.7944 F       1  UNL1       -0.1669
     39 F         144.3055  142.0825  163.7450 F       1  UNL1       -0.1669
@<TRIPOS>BOND
     1     5     6    1
     2     6     7    2
     3     6     8   am
     4     8     9    1
     5     9    10    1
     6    10    11   ar
     7    11    12   ar
     8    12    17    1
     9    17    18    2
    10    17    19    2
    11    17    20    1
    12    20    21    1
    13    21    22    1
    14    12    13   ar
    15    13    14   ar
    16    14    15   ar
    17    15    16    1
    18    16     1    1
    19     1     2    2
    20     1     3   am
    21     3    23    1
    22    23    24   ar
    23    24    25   ar
    24    25    26   ar
    25    26    29    1
    26    29    30    1
    27    29    32    1
    28    32    33    1
    29    32    34    1
    30    32    35    1
    31    29    36    1
    32    36    37    1
    33    36    38    1
    34    36    39    1
    35    26    27   ar
    36    27    28   ar
    37    16     8    1
    38    28    23   ar
    39    15    10   ar
    40    22    20    1
    41     3     4    1
    42    30    31    1
@<TRIPOS>MOLECULE
*****
 39 42 0 0 0
SMALL
GASTEIGER

@<TRIPOS>ATOM
      1 C         141.5528  142.8526  162.4699 C.2     1  UNL1        0.2485
      2 O         140.9293  141.5103  162.7132 O.2     1  UNL1       -0.2726
      3 N         142.0164  143.6852  163.6284 N.am    1  UNL1       -0.2823
      4 H         142.4257  144.5663  163.4688 H       1  UNL1        0.1549
      5 C         139.5376  146.6904  160.5087 C.3     1  UNL1        0.0949
      6 C         140.1214  145.5048  161.2183 C.2     1  UNL1        0.2269
      7 O         139.7715  145.2424  162.6531 O.2     1  UNL1       -0.2748
      8 N         141.0549  144.5815  160.4930 N.am    1  UNL1       -0.2655
      9 C         141.4944  144.7151  159.0651 C.3     1  UNL1        0.1206
     10 C         142.4240  143.5786  158.7579 C.ar    1  UNL1       -0.0030
     11 C         143.1650  143.1971  157.5107 C.ar    1  UNL1        0.0155
     12 C         144.0409  141.9795  157.5017 C.ar    1  UNL1        0.1053
     13 C         144.1760  141.1435  158.7398 C.ar    1  UNL1        0.0181
     14 C         143.4350  141.5251  159.9869 C.ar    1  UNL1       -0.0011
     15 C         142.5590  142.7426  159.9959 C.ar    1  UNL1        0.0022
     16 C         141.7129  143.3624  161.0683 C.3     1  UNL1        0.1750
     17 S         144.7819  141.5979  156.2545 S.O2    1  UNL1        0.0070
     18 O         144.3243  142.8649  155.5949 O.2     1  UNL1       -0.1687
     19 O         145.2396  140.3309  156.9142 O.2     1  UNL1       -0.1687
     20 C         145.5229  141.2162  155.0075 C.3     1  UNL1        0.1339
     21 C         145.6108  140.4150  153.7424 C.3     1  UNL1        0.0257
     22 C         146.7184  141.3564  154.1125 C.3     1  UNL1        0.0257
     23 C         141.8564  143.1754  165.0300 C.ar    1  UNL1        0.0503
     24 C         143.0367  142.6074  165.7608 C.ar    1  UNL1        0.0144
     25 C         142.8767  142.0976  167.1624 C.ar    1  UNL1       -0.0002
     26 C         141.5363  142.1559  167.8331 C.ar    1  UNL1        0.0182
     27 C         140.3559  142.7239  167.1023 C.ar    1  UNL1       -0.0002
     28 C         140.5160  143.2337  165.7007 C.ar    1  UNL1        0.0144
     29 C         141.3761  141.6461  169.2347 C.3     1  UNL1        0.2827
     30 O         141.7372  140.2651  168.7738 O.3     1  UNL1       -0.3692
     31 H         141.7174  139.6566  169.5290 H       1  UNL1        0.2112
     32 C         141.2159  141.1364  170.6364 C.3     1  UNL1        0.4311
     33 F         141.0558  140.6267  172.0380 F       1  UNL1       -0.1669
     34 F         140.0575  140.2910  170.1966 F       1  UNL1       -0.1669
     35 F         141.8833  141.5951  170.9951 F       1  UNL1       -0.1669
     36 C         141.0150  143.0271  169.6957 C.3     1  UNL1        0.4311
     37 F         140.6540  144.4081  170.1566 F       1  UNL1       -0.1669
     38 F         141.8079  143.3974  169.5586 F       1  UNL1       -0.1669
     39 F         139.5720  142.9128  170.0891 F       1  UNL1       -0.1669
@<TRIPOS>BOND
     1     5     6    1
     2     6     7    2
     3     6     8   am
     4     8     9    1
     5     9    10    1
     6    10    11   ar
     7    11    12   ar
     8    12    17    1
     9    17    18    2
    10    17    19    2
    11    17    20    1
    12    20    21    1
    13    21    22    1
    14    12    13   ar
    15    13    14   ar
    16    14    15   ar
    17    15    16    1
    18    16     1    1
    19     1     2    2
    20     1     3   am
    21     3    23    1
    22    23    24   ar
    23    24    25   ar
    24    25    26   ar
    25    26    29    1
    26    29    30    1
    27    29    32    1
    28    32    33    1
    29    32    34    1
    30    32    35    1
    31    29    36    1
    32    36    37    1
    33    36    38    1
    34    36    39    1
    35    26    27   ar
    36    27    28   ar
    37    16     8    1
    38    28    23   ar
    39    15    10   ar
    40    22    20    1
    41     3     4    1
    42    30    31    1
@<TRIPOS>MOLECULE
*****
 39 42 0 0 0
SMALL
GASTEIGER

@<TRIPOS>ATOM
      1 C         142.2111  140.8500  158.5570 C.2     1  UNL1        0.2485
      2 O         140.9127  141.4920  158.1673 O.2     1  UNL1       -0.2726
      3 N         142.7098  140.9625  159.9673 N.am    1  UNL1       -0.2823
      4 H         143.5620  140.5411  160.2232 H       1  UNL1        0.1549
      5 C         146.3661  142.0919  156.6002 C.3     1  UNL1        0.0949
      6 C         145.0599  141.7917  157.2738 C.2     1  UNL1        0.2269
      7 O         144.4934  142.7549  158.2744 O.2     1  UNL1       -0.2748
      8 N         144.3203  140.5284  156.9468 N.am    1  UNL1       -0.2655
      9 C         144.7602  139.4761  155.9726 C.3     1  UNL1        0.1206
     10 C         143.7227  138.3929  155.9603 C.ar    1  UNL1       -0.0030
     11 C         143.6228  137.1074  155.1939 C.ar    1  UNL1        0.0155
     12 C         142.4416  136.2048  155.3940 C.ar    1  UNL1        0.1053
     13 C         141.3604  136.5876  156.3607 C.ar    1  UNL1        0.0181
     14 C         141.4603  137.8731  157.1272 C.ar    1  UNL1       -0.0011
     15 C         142.6415  138.7757  156.9270 C.ar    1  UNL1        0.0022
     16 C         143.0108  140.0955  157.5367 C.3     1  UNL1        0.1750
     17 S         142.3417  134.9192  154.6275 S.O2    1  UNL1        0.0070
     18 O         142.1978  135.6921  153.3500 O.2     1  UNL1       -0.1687
     19 O         142.4855  134.1464  155.9050 O.2     1  UNL1       -0.1687
     20 C         142.2417  133.6337  153.8611 C.3     1  UNL1        0.1339
     21 C         142.7731  132.2684  153.5395 C.3     1  UNL1        0.0257
     22 C         141.5372  132.7725  152.8552 C.3     1  UNL1        0.0257
     23 C         141.9100  141.7169  160.9877 C.ar    1  UNL1        0.0503
     24 C         141.9604  143.2157  161.0216 C.ar    1  UNL1        0.0144
     25 C         141.1607  143.9701  162.0420 C.ar    1  UNL1       -0.0002
     26 C         140.3105  143.2258  163.0284 C.ar    1  UNL1        0.0182
     27 C         140.2601  141.7270  162.9946 C.ar    1  UNL1       -0.0002
     28 C         141.0599  140.9726  161.9742 C.ar    1  UNL1        0.0144
     29 C         139.5107  143.9802  164.0489 C.3     1  UNL1        0.2827
     30 O         138.6541  144.5492  162.9569 O.3     1  UNL1       -0.3692
     31 H         137.9819  145.1318  163.3437 H       1  UNL1        0.2112
     32 C         138.7110  144.7345  165.0694 C.3     1  UNL1        0.4311
     33 F         137.9113  145.4889  166.0899 F       1  UNL1       -0.1669
     34 F         137.5085  143.8986  164.7449 F       1  UNL1       -0.1669
     35 F         139.3582  145.2788  165.3330 F       1  UNL1       -0.1669
     36 C         140.3674  143.4111  165.1408 C.3     1  UNL1        0.4311
     37 F         141.2241  142.8422  166.2328 F       1  UNL1       -0.1669
     38 F         141.1103  143.8466  164.9333 F       1  UNL1       -0.1669
     39 F         139.4470  142.4847  165.8788 F       1  UNL1       -0.1669
@<TRIPOS>BOND
     1     5     6    1
     2     6     7    2
     3     6     8   am
     4     8     9    1
     5     9    10    1
     6    10    11   ar
     7    11    12   ar
     8    12    17    1
     9    17    18    2
    10    17    19    2
    11    17    20    1
    12    20    21    1
    13    21    22    1
    14    12    13   ar
    15    13    14   ar
    16    14    15   ar
    17    15    16    1
    18    16     1    1
    19     1     2    2
    20     1     3   am
    21     3    23    1
    22    23    24   ar
    23    24    25   ar
    24    25    26   ar
    25    26    29    1
    26    29    30    1
    27    29    32    1
    28    32    33    1
    29    32    34    1
    30    32    35    1
    31    29    36    1
    32    36    37    1
    33    36    38    1
    34    36    39    1
    35    26    27   ar
    36    27    28   ar
    37    16     8    1
    38    28    23   ar
    39    15    10   ar
    40    22    20    1
    41     3     4    1
    42    30    31    1
@<TRIPOS>MOLECULE
*****
 39 42 0 0 0
SMALL
GASTEIGER

@<TRIPOS>ATOM
      1 C         142.4678  140.9643  162.0958 C.2     1  UNL1        0.2485
      2 O         143.8248  140.6964  162.6760 O.2     1  UNL1       -0.2726
      3 N         141.2930  141.1786  163.0037 N.am    1  UNL1       -0.2823
      4 H         140.4023  141.3545  162.6230 H       1  UNL1        0.1549
      5 C         141.4965  144.7668  159.4063 C.3     1  UNL1        0.0949
      6 C         141.8014  143.6331  160.3399 C.2     1  UNL1        0.2269
      7 O         141.9287  143.8878  161.8126 O.2     1  UNL1       -0.2748
      8 N         141.9791  142.2446  159.8008 N.am    1  UNL1       -0.2655
      9 C         141.8817  141.8391  158.3600 C.3     1  UNL1        0.1206
     10 C         142.1277  140.3617  158.2766 C.ar    1  UNL1       -0.0030
     11 C         142.1568  139.4131  157.1151 C.ar    1  UNL1        0.0155
     12 C         142.4354  137.9569  157.3429 C.ar    1  UNL1        0.1053
     13 C         142.6849  137.4494  158.7322 C.ar    1  UNL1        0.0181
     14 C         142.6558  138.3981  159.8937 C.ar    1  UNL1       -0.0011
     15 C         142.3772  139.8542  159.6659 C.ar    1  UNL1        0.0022
     16 C         142.2854  141.0179  160.6079 C.3     1  UNL1        0.1750
     17 S         142.4645  137.0082  156.1813 S.O2    1  UNL1        0.0070
     18 O         140.9900  136.7783  156.3321 O.2     1  UNL1       -0.1687
     19 O         143.9391  137.2380  156.0306 O.2     1  UNL1       -0.1687
     20 C         142.4937  136.0595  155.0199 C.3     1  UNL1        0.1339
     21 C         142.8121  134.7068  154.4551 C.3     1  UNL1        0.0257
     22 C         142.2258  135.7689  153.5729 C.3     1  UNL1        0.0257
     23 C         141.4754  141.1250  164.4916 C.ar    1  UNL1        0.0503
     24 C         141.0039  139.9277  165.2624 C.ar    1  UNL1        0.0144
     25 C         141.1863  139.8740  166.7503 C.ar    1  UNL1       -0.0002
     26 C         141.8402  141.0178  167.4673 C.ar    1  UNL1        0.0182
     27 C         142.3117  142.2151  166.6966 C.ar    1  UNL1       -0.0002
     28 C         142.1293  142.2687  165.2087 C.ar    1  UNL1        0.0144
     29 C         142.0226  140.9642  168.9553 C.3     1  UNL1        0.2827
     30 O         142.9198  139.7719  168.8024 O.3     1  UNL1       -0.3692
     31 H         143.2244  139.4822  169.6767 H       1  UNL1        0.2112
     32 C         142.2050  140.9108  170.4432 C.3     1  UNL1        0.4311
     33 F         142.3874  140.8573  171.9311 F       1  UNL1       -0.1669
     34 F         143.6725  141.1705  170.2726 F       1  UNL1       -0.1669
     35 F         141.3581  140.7546  170.6503 F       1  UNL1       -0.1669
     36 C         141.1254  142.1566  169.1081 C.3     1  UNL1        0.4311
     37 F         140.2282  143.3489  169.2609 F       1  UNL1       -0.1669
     38 F         140.3703  141.7533  168.8808 F       1  UNL1       -0.1669
     39 F         142.0515  143.2549  169.5395 F       1  UNL1       -0.1669
@<TRIPOS>BOND
     1     5     6    1
     2     6     7    2
     3     6     8   am
     4     8     9    1
     5     9    10    1
     6    10    11   ar
     7    11    12   ar
     8    12    17    1
     9    17    18    2
    10    17    19    2
    11    17    20    1
    12    20    21    1
    13    21    22    1
    14    12    13   ar
    15    13    14   ar
    16    14    15   ar
    17    15    16    1
    18    16     1    1
    19     1     2    2
    20     1     3   am
    21     3    23    1
    22    23    24   ar
    23    24    25   ar
    24    25    26   ar
    25    26    29    1
    26    29    30    1
    27    29    32    1
    28    32    33    1
    29    32    34    1
    30    32    35    1
    31    29    36    1
    32    36    37    1
    33    36    38    1
    34    36    39    1
    35    26    27   ar
    36    27    28   ar
    37    16     8    1
    38    28    23   ar
    39    15    10   ar
    40    22    20    1
    41     3     4    1
    42    30    31    1
@<TRIPOS>MOLECULE
*****
 39 42 0 0 0
SMALL
GASTEIGER

@<TRIPOS>ATOM
      1 C         142.4641  137.9482  158.4975 C.2     1  UNL1        0.2485
      2 O         141.1150  138.1545  159.1199 O.2     1  UNL1       -0.2726
      3 N         143.6960  138.4413  159.1970 N.am    1  UNL1       -0.2823
      4 H         144.5815  138.3060  158.7886 H       1  UNL1        0.1549
      5 C         141.7168  139.7545  154.1599 C.3     1  UNL1        0.0949
      6 C         141.9280  139.2818  155.5677 C.2     1  UNL1        0.2269
      7 O         141.7322  140.2290  156.7141 O.2     1  UNL1       -0.2748
      8 N         142.3349  137.8619  155.8290 N.am    1  UNL1       -0.2655
      9 C         142.5668  136.8056  154.7895 C.3     1  UNL1        0.1206
     10 C         142.9566  135.5398  155.4938 C.ar    1  UNL1       -0.0030
     11 C         143.3045  134.1732  154.9827 C.ar    1  UNL1        0.0155
     12 C         143.6614  133.0806  155.9464 C.ar    1  UNL1        0.1053
     13 C         143.6703  133.3545  157.4211 C.ar    1  UNL1        0.0181
     14 C         143.3224  134.7212  157.9322 C.ar    1  UNL1       -0.0011
     15 C         142.9655  135.8138  156.9685 C.ar    1  UNL1        0.0022
     16 C         142.5813  137.2489  157.1757 C.3     1  UNL1        0.1750
     17 S         144.0094  131.7139  155.4353 S.O2    1  UNL1        0.0070
     18 O         142.6772  131.6305  154.7510 O.2     1  UNL1       -0.1687
     19 O         145.3415  131.7972  156.1197 O.2     1  UNL1       -0.1687
     20 C         144.3574  130.3472  154.9243 C.3     1  UNL1        0.1339
     21 C         144.4795  128.8690  155.1478 C.3     1  UNL1        0.0257
     22 C         144.8379  129.4583  153.8158 C.3     1  UNL1        0.0257
     23 C         143.5788  139.1406  160.5189 C.ar    1  UNL1        0.0503
     24 C         143.4780  140.6364  160.5697 C.ar    1  UNL1        0.0144
     25 C         143.3608  141.3357  161.8915 C.ar    1  UNL1       -0.0002
     26 C         143.3443  140.5392  163.1624 C.ar    1  UNL1        0.0182
     27 C         143.4451  139.0435  163.1116 C.ar    1  UNL1       -0.0002
     28 C         143.5623  138.3441  161.7898 C.ar    1  UNL1        0.0144
     29 C         143.2271  141.2384  164.4843 C.3     1  UNL1        0.2827
     30 O         141.7880  140.8252  164.5754 O.3     1  UNL1       -0.3692
     31 H         141.4064  141.1624  165.4010 H       1  UNL1        0.2112
     32 C         143.1099  141.9377  165.8062 C.3     1  UNL1        0.4311
     33 F         142.9928  142.6370  167.1281 F       1  UNL1       -0.1669
     34 F         142.2059  142.9608  165.1849 F       1  UNL1       -0.1669
     35 F         143.6313  141.3885  166.2656 F       1  UNL1       -0.1669
     36 C         144.6661  141.6517  164.3933 C.3     1  UNL1        0.4311
     37 F         146.1053  142.0649  164.3022 F       1  UNL1       -0.1669
     38 F         145.0171  140.8465  164.5074 F       1  UNL1       -0.1669
     39 F         144.6049  143.1339  164.1715 F       1  UNL1       -0.1669
@<TRIPOS>BOND
     1     5     6    1
     2     6     7    2
     3     6     8   am
     4     8     9    1
     5     9    10    1
     6    10    11   ar
     7    11    12   ar
     8    12    17    1
     9    17    18    2
    10    17    19    2
    11    17    20    1
    12    20    21    1
    13    21    22    1
    14    12    13   ar
    15    13    14   ar
    16    14    15   ar
    17    15    16    1
    18    16     1    1
    19     1     2    2
    20     1     3   am
    21     3    23    1
    22    23    24   ar
    23    24    25   ar
    24    25    26   ar
    25    26    29    1
    26    29    30    1
    27    29    32    1
    28    32    33    1
    29    32    34    1
    30    32    35    1
    31    29    36    1
    32    36    37    1
    33    36    38    1
    34    36    39    1
    35    26    27   ar
    36    27    28   ar
    37    16     8    1
    38    28    23   ar
    39    15    10   ar
    40    22    20    1
    41     3     4    1
    42    30    31    1
@<TRIPOS>MOLECULE
*****
 39 42 0 0 0
SMALL
GASTEIGER

@<TRIPOS>ATOM
      1 C         142.8291  138.8176  158.3000 C.2     1  UNL1        0.2485
      2 O         143.0714  137.6166  159.1653 O.2     1  UNL1       -0.2726
      3 N         142.5403  138.6430  156.8384 N.am    1  UNL1       -0.2823
      4 H         142.3812  139.4313  156.2705 H       1  UNL1        0.1549
      5 C         145.8105  142.3671  157.2285 C.3     1  UNL1        0.0949
      6 C         144.9212  141.1884  157.4924 C.2     1  UNL1        0.2269
      7 O         145.1158  139.9152  156.7238 O.2     1  UNL1       -0.2748
      8 N         143.8373  141.2830  158.5250 N.am    1  UNL1       -0.2655
      9 C         143.5247  142.4839  159.3677 C.3     1  UNL1        0.1206
     10 C         142.3699  142.1363  160.2598 C.ar    1  UNL1       -0.0030
     11 C         141.6318  142.9261  161.2997 C.ar    1  UNL1        0.0155
     12 C         140.4926  142.3001  162.0482 C.ar    1  UNL1        0.1053
     13 C         140.0915  140.8844  161.7568 C.ar    1  UNL1        0.0181
     14 C         140.8296  140.0947  160.7169 C.ar    1  UNL1       -0.0011
     15 C         141.9688  140.7206  159.9684 C.ar    1  UNL1        0.0022
     16 C         142.8757  140.1933  158.8963 C.3     1  UNL1        0.1750
     17 S         139.7545  143.0898  163.0882 S.O2    1  UNL1        0.0070
     18 O         139.0868  141.8350  163.5673 O.2     1  UNL1       -0.1687
     19 O         140.4221  144.3447  162.6091 O.2     1  UNL1       -0.1687
     20 C         139.0164  143.8796  164.1282 C.3     1  UNL1        0.1339
     21 C         137.7251  144.3707  164.7124 C.3     1  UNL1        0.0257
     22 C         139.0292  144.7564  165.3451 C.3     1  UNL1        0.0257
     23 C         142.4937  137.2674  156.2422 C.ar    1  UNL1        0.0503
     24 C         141.1721  136.6223  155.9471 C.ar    1  UNL1        0.0144
     25 C         141.1255  135.2466  155.3509 C.ar    1  UNL1       -0.0002
     26 C         142.4006  134.5162  155.0498 C.ar    1  UNL1        0.0182
     27 C         143.7222  135.1614  155.3450 C.ar    1  UNL1       -0.0002
     28 C         143.7688  136.5370  155.9412 C.ar    1  UNL1        0.0144
     29 C         142.3541  133.1406  154.4536 C.3     1  UNL1        0.2827
     30 O         142.1286  133.7366  153.0957 O.3     1  UNL1       -0.3692
     31 H         142.0516  133.0263  152.4395 H       1  UNL1        0.2112
     32 C         142.3076  131.7649  153.8575 C.3     1  UNL1        0.4311
     33 F         142.2612  130.3892  153.2613 F       1  UNL1       -0.1669
     34 F         140.8176  131.7413  154.0281 F       1  UNL1       -0.1669
     35 F         143.1776  131.6796  153.7145 F       1  UNL1       -0.1669
     36 C         142.5796  132.5445  155.8115 C.3     1  UNL1        0.4311
     37 F         142.8051  131.9485  157.1694 F       1  UNL1       -0.1669
     38 F         141.7400  132.5897  156.0900 F       1  UNL1       -0.1669
     39 F         144.0510  132.2544  155.8408 F       1  UNL1       -0.1669
@<TRIPOS>BOND
     1     5     6    1
     2     6     7    2
     3     6     8   am
     4     8     9    1
     5     9    10    1
     6    10    11   ar
     7    11    12   ar
     8    12    17    1
     9    17    18    2
    10    17    19    2
    11    17    20    1
    12    20    21    1
    13    21    22    1
    14    12    13   ar
    15    13    14   ar
    16    14    15   ar
    17    15    16    1
    18    16     1    1
    19     1     2    2
    20     1     3   am
    21     3    23    1
    22    23    24   ar
    23    24    25   ar
    24    25    26   ar
    25    26    29    1
    26    29    30    1
    27    29    32    1
    28    32    33    1
    29    32    34    1
    30    32    35    1
    31    29    36    1
    32    36    37    1
    33    36    38    1
    34    36    39    1
    35    26    27   ar
    36    27    28   ar
    37    16     8    1
    38    28    23   ar
    39    15    10   ar
    40    22    20    1
    41     3     4    1
    42    30    31    1
