@<TRIPOS>MOLECULE
*****
 31 35 0 0 0
SMALL
GASTEIGER

@<TRIPOS>ATOM
      1 C         145.1201  140.0573  163.9227 C.3     1  UNL1        0.0730
      2 N         143.7499  139.7746  164.4637 N.3     1  UNL1       -0.2724
      3 C         143.2037  140.2547  165.7756 C.3     1  UNL1        0.0725
      4 C         141.8016  139.7389  165.9105 C.3     1  UNL1        0.0227
      5 C         141.4814  138.9400  164.6820 C.3     1  UNL1        0.0347
      6 C         141.3061  138.1751  163.4036 C.3     1  UNL1        0.0058
      7 C         140.0094  137.4768  163.1193 C.3     1  UNL1        0.0050
      8 C         138.8879  137.5434  164.1132 C.3     1  UNL1        0.0260
      9 C         139.0632  138.3084  165.3915 C.ar    1  UNL1       -0.0261
     10 C         137.9418  138.3750  166.3854 C.ar    1  UNL1       -0.0041
     11 C         138.1170  139.1399  167.6637 C.ar    1  UNL1        0.0064
     12 C         139.4136  139.8382  167.9482 C.ar    1  UNL1        0.0342
     13 BR        139.5889  140.6032  169.2265 Br      1  UNL1       -0.0490
     14 C         140.5351  139.7716  166.9542 C.ar    1  UNL1        0.0021
     15 C         140.3599  139.0067  165.6759 C.ar    1  UNL1       -0.0249
     16 C         142.6855  138.9621  163.7878 C.3     1  UNL1        0.0761
     17 C         145.6248  141.4684  163.8588 C.3     1  UNL1        0.0294
     18 C         145.4932  142.2553  162.5885 C.3     1  UNL1        0.0666
     19 S         144.4716  143.3488  162.4861 S.3     1  UNL1       -0.0756
     20 C         140.7658  142.5415  163.3112 C.ar    1  UNL1        0.2029
     21 N         141.2224  143.1574  164.6005 N.ar    1  UNL1       -0.1250
     22 N         142.6661  143.5348  164.4483 N.ar    1  UNL1       -0.1220
     23 C         143.1019  143.1521  163.0650 C.ar    1  UNL1        0.1933
     24 N         141.9275  142.5382  162.3622 N.ar    1  UNL1       -0.2860
     25 C         141.9167  142.0132  160.9571 C.3     1  UNL1        0.1341
     26 C         137.9649  144.1385  163.8148 C.3     1  UNL1        0.0556
     27 C         138.1019  142.7544  163.2532 C.ar    1  UNL1        0.1001
     28 N         136.9756  141.8613  162.8245 N.ar    1  UNL1       -0.2085
     29 C         137.5669  140.5752  162.3281 C.ar    1  UNL1        0.2849
     30 O         139.0587  140.6735  162.4500 O.2     1  UNL1       -0.4283
     31 C         139.3894  142.0203  163.0218 C.ar    1  UNL1        0.1964
@<TRIPOS>BOND
     1    26    27    1
     2    27    28   ar
     3    28    29   ar
     4    29    30   ar
     5    30    31   ar
     6    31    20    1
     7    20    21   ar
     8    21    22   ar
     9    22    23   ar
    10    23    19    1
    11    19    18    1
    12    18    17    1
    13    17     1    1
    14     1     2    1
    15     2     3    1
    16     3     4    1
    17     4     5    1
    18     5     6    1
    19     6     7    1
    20     7     8    1
    21     8     9    1
    22     9    10   ar
    23    10    11   ar
    24    11    12   ar
    25    12    13    1
    26    12    14   ar
    27    14    15   ar
    28     5    16    1
    29    23    24   ar
    30    24    25    1
    31    31    27   ar
    32    24    20   ar
    33    16     2    1
    34    15     5    1
    35    15     9   ar
@<TRIPOS>MOLECULE
*****
 31 35 0 0 0
SMALL
GASTEIGER

@<TRIPOS>ATOM
      1 C         137.7443  139.6477  162.5670 C.3     1  UNL1        0.0730
      2 N         138.6418  139.6302  163.7688 N.3     1  UNL1       -0.2724
      3 C         138.2466  139.9928  165.1696 C.3     1  UNL1        0.0725
      4 C         139.4526  139.8336  166.0473 C.3     1  UNL1        0.0227
      5 C         140.5931  139.3727  165.1889 C.3     1  UNL1        0.0347
      6 C         141.6335  138.9160  164.2096 C.3     1  UNL1        0.0058
      7 C         143.0298  138.6309  164.6773 C.3     1  UNL1        0.0050
      8 C         143.3859  138.8024  166.1243 C.3     1  UNL1        0.0260
      9 C         142.3455  139.2590  167.1036 C.ar    1  UNL1       -0.0261
     10 C         142.7014  139.4304  168.5506 C.ar    1  UNL1       -0.0041
     11 C         141.6611  139.8870  169.5299 C.ar    1  UNL1        0.0064
     12 C         140.2647  140.1722  169.0623 C.ar    1  UNL1        0.0342
     13 BR        139.2243  140.6288  170.0416 Br      1  UNL1       -0.0490
     14 C         139.9087  140.0007  167.6152 C.ar    1  UNL1        0.0021
     15 C         140.9491  139.5441  166.6359 C.ar    1  UNL1       -0.0249
     16 C         140.0920  139.2469  163.7807 C.3     1  UNL1        0.0761
     17 C         138.2628  139.1871  161.2370 C.3     1  UNL1        0.0294
     18 C         137.7947  139.8540  159.9775 C.3     1  UNL1        0.0666
     19 S         138.6062  140.9581  159.3673 S.3     1  UNL1       -0.0756
     20 C         140.5696  143.4107  161.6467 C.ar    1  UNL1        0.2029
     21 N         139.2814  144.1563  161.4604 N.ar    1  UNL1       -0.1250
     22 N         138.3891  143.3283  160.5838 N.ar    1  UNL1       -0.1220
     23 C         139.1259  142.0710  160.2284 C.ar    1  UNL1        0.1933
     24 N         140.4734  142.1218  160.8853 N.ar    1  UNL1       -0.2860
     25 C         141.5380  141.0688  160.7963 C.3     1  UNL1        0.1341
     26 C         140.9558  143.0375  164.8656 C.3     1  UNL1        0.0556
     27 C         141.9246  143.7013  163.9324 C.ar    1  UNL1        0.1001
     28 N         143.2411  144.3100  164.3149 N.ar    1  UNL1       -0.2085
     29 C         143.8772  144.8578  163.0718 C.ar    1  UNL1        0.2849
     30 O         142.9539  144.5875  161.9210 O.2     1  UNL1       -0.4283
     31 C         141.7471  143.8728  162.4529 C.ar    1  UNL1        0.1964
@<TRIPOS>BOND
     1    26    27    1
     2    27    28   ar
     3    28    29   ar
     4    29    30   ar
     5    30    31   ar
     6    31    20    1
     7    20    21   ar
     8    21    22   ar
     9    22    23   ar
    10    23    19    1
    11    19    18    1
    12    18    17    1
    13    17     1    1
    14     1     2    1
    15     2     3    1
    16     3     4    1
    17     4     5    1
    18     5     6    1
    19     6     7    1
    20     7     8    1
    21     8     9    1
    22     9    10   ar
    23    10    11   ar
    24    11    12   ar
    25    12    13    1
    26    12    14   ar
    27    14    15   ar
    28     5    16    1
    29    23    24   ar
    30    24    25    1
    31    31    27   ar
    32    24    20   ar
    33    16     2    1
    34    15     5    1
    35    15     9   ar
@<TRIPOS>MOLECULE
*****
 31 35 0 0 0
SMALL
GASTEIGER

@<TRIPOS>ATOM
      1 C         138.8300  144.8082  162.4822 C.3     1  UNL1        0.0730
      2 N         139.1279  143.9413  163.6696 N.3     1  UNL1       -0.2724
      3 C         139.5304  144.4209  165.0326 C.3     1  UNL1        0.0725
      4 C         139.7269  143.2186  165.9077 C.3     1  UNL1        0.0227
      5 C         139.4459  141.9959  165.0855 C.3     1  UNL1        0.0347
      6 C         139.1352  140.8705  164.1437 C.3     1  UNL1        0.0058
      7 C         139.2111  139.4505  164.6210 C.3     1  UNL1        0.0050
      8 C         139.5976  139.1559  166.0401 C.3     1  UNL1        0.0260
      9 C         139.9082  140.2812  166.9819 C.ar    1  UNL1       -0.0261
     10 C         140.2947  139.9866  168.4009 C.ar    1  UNL1       -0.0041
     11 C         140.6054  141.1120  169.3427 C.ar    1  UNL1        0.0064
     12 C         140.5296  142.5319  168.8655 C.ar    1  UNL1        0.0342
     13 BR        140.8402  143.6573  169.8073 Br      1  UNL1       -0.0490
     14 C         140.1430  142.8266  167.4464 C.ar    1  UNL1        0.0021
     15 C         139.8324  141.7012  166.5046 C.ar    1  UNL1       -0.0249
     16 C         139.0757  142.4425  163.7022 C.3     1  UNL1        0.0761
     17 C         139.8612  145.7762  161.9828 C.3     1  UNL1        0.0294
     18 C         140.2320  145.7935  160.5294 C.3     1  UNL1        0.0666
     19 S         141.2934  144.8668  160.0151 S.3     1  UNL1       -0.0756
     20 C         142.6215  141.9717  162.2334 C.ar    1  UNL1        0.2029
     21 N         143.5754  143.0725  162.5916 N.ar    1  UNL1       -0.1250
     22 N         143.1940  144.2910  161.8043 N.ar    1  UNL1       -0.1220
     23 C         142.0044  143.9433  160.9594 C.ar    1  UNL1        0.1933
     24 N         141.6505  142.5099  161.2245 N.ar    1  UNL1       -0.2860
     25 C         140.5235  141.7484  160.5920 C.3     1  UNL1        0.1341
     26 C         143.1923  141.1463  165.3386 C.3     1  UNL1        0.0556
     27 C         142.8984  140.1982  164.2140 C.ar    1  UNL1        0.1001
     28 N         142.8152  138.7042  164.3193 N.ar    1  UNL1       -0.2085
     29 C         142.5014  138.1603  162.9571 C.ar    1  UNL1        0.2849
     30 O         142.3906  139.3181  162.0099 O.2     1  UNL1       -0.4283
     31 C         142.6360  140.5776  162.7867 C.ar    1  UNL1        0.1964
@<TRIPOS>BOND
     1    26    27    1
     2    27    28   ar
     3    28    29   ar
     4    29    30   ar
     5    30    31   ar
     6    31    20    1
     7    20    21   ar
     8    21    22   ar
     9    22    23   ar
    10    23    19    1
    11    19    18    1
    12    18    17    1
    13    17     1    1
    14     1     2    1
    15     2     3    1
    16     3     4    1
    17     4     5    1
    18     5     6    1
    19     6     7    1
    20     7     8    1
    21     8     9    1
    22     9    10   ar
    23    10    11   ar
    24    11    12   ar
    25    12    13    1
    26    12    14   ar
    27    14    15   ar
    28     5    16    1
    29    23    24   ar
    30    24    25    1
    31    31    27   ar
    32    24    20   ar
    33    16     2    1
    34    15     5    1
    35    15     9   ar
@<TRIPOS>MOLECULE
*****
 31 35 0 0 0
SMALL
GASTEIGER

@<TRIPOS>ATOM
      1 C         142.8630  143.9231  162.0516 C.3     1  UNL1        0.0730
      2 N         142.7081  143.1612  163.3344 N.3     1  UNL1       -0.2724
      3 C         142.0386  143.6598  164.5806 C.3     1  UNL1        0.0725
      4 C         142.1122  142.5736  165.6125 C.3     1  UNL1        0.0227
      5 C         142.8272  141.4038  165.0040 C.3     1  UNL1        0.0347
      6 C         143.5545  140.3200  164.2648 C.3     1  UNL1        0.0058
      7 C         143.8494  139.0160  164.9449 C.3     1  UNL1        0.0050
      8 C         143.4171  138.7958  166.3643 C.3     1  UNL1        0.0260
      9 C         142.6898  139.8795  167.1035 C.ar    1  UNL1       -0.0261
     10 C         142.2574  139.6593  168.5228 C.ar    1  UNL1       -0.0041
     11 C         141.5302  140.7430  169.2621 C.ar    1  UNL1        0.0064
     12 C         141.2352  142.0470  168.5820 C.ar    1  UNL1        0.0342
     13 BR        140.5079  143.1308  169.3213 Br      1  UNL1       -0.0490
     14 C         141.6676  142.2673  167.1627 C.ar    1  UNL1        0.0021
     15 C         142.3948  141.1835  166.4234 C.ar    1  UNL1       -0.0249
     16 C         143.1955  141.7669  163.5960 C.3     1  UNL1        0.0761
     17 C         141.7049  144.6963  161.4939 C.3     1  UNL1        0.0294
     18 C         141.1811  144.3792  160.1246 C.3     1  UNL1        0.0666
     19 S         139.9056  143.6052  159.9702 S.3     1  UNL1       -0.0756
     20 C         138.7587  141.4593  162.9943 C.ar    1  UNL1        0.2029
     21 N         137.7618  142.5793  163.0389 N.ar    1  UNL1       -0.1250
     22 N         138.0701  143.5194  161.9115 N.ar    1  UNL1       -0.1220
     23 C         139.2575  142.9805  161.1701 C.ar    1  UNL1        0.1933
     24 N         139.6831  141.7073  161.8393 N.ar    1  UNL1       -0.2860
     25 C         140.8314  140.8352  161.4261 C.3     1  UNL1        0.1341
     26 C         138.1665  138.3407  162.2372 C.3     1  UNL1        0.0556
     27 C         138.5481  138.8622  163.5909 C.ar    1  UNL1        0.1001
     28 N         138.7245  138.0418  164.8342 N.ar    1  UNL1       -0.2085
     29 C         139.1057  138.9683  165.9506 C.ar    1  UNL1        0.2849
     30 O         139.1649  140.3612  165.3973 O.2     1  UNL1       -0.4283
     31 C         138.8203  140.2956  163.9389 C.ar    1  UNL1        0.1964
@<TRIPOS>BOND
     1    26    27    1
     2    27    28   ar
     3    28    29   ar
     4    29    30   ar
     5    30    31   ar
     6    31    20    1
     7    20    21   ar
     8    21    22   ar
     9    22    23   ar
    10    23    19    1
    11    19    18    1
    12    18    17    1
    13    17     1    1
    14     1     2    1
    15     2     3    1
    16     3     4    1
    17     4     5    1
    18     5     6    1
    19     6     7    1
    20     7     8    1
    21     8     9    1
    22     9    10   ar
    23    10    11   ar
    24    11    12   ar
    25    12    13    1
    26    12    14   ar
    27    14    15   ar
    28     5    16    1
    29    23    24   ar
    30    24    25    1
    31    31    27   ar
    32    24    20   ar
    33    16     2    1
    34    15     5    1
    35    15     9   ar
@<TRIPOS>MOLECULE
*****
 31 35 0 0 0
SMALL
GASTEIGER

@<TRIPOS>ATOM
      1 C         144.1402  143.3805  162.4422 C.3     1  UNL1        0.0730
      2 N         143.6850  142.7174  163.7083 N.3     1  UNL1       -0.2724
      3 C         142.8776  143.3579  164.7981 C.3     1  UNL1        0.0725
      4 C         142.6510  142.3336  165.8702 C.3     1  UNL1        0.0227
      5 C         143.3183  141.0600  165.4429 C.3     1  UNL1        0.0347
      6 C         144.0295  139.8626  164.8857 C.3     1  UNL1        0.0058
      7 C         144.0535  138.5775  165.6588 C.3     1  UNL1        0.0050
      8 C         143.3663  138.4897  166.9893 C.3     1  UNL1        0.0260
      9 C         142.6550  139.6870  167.5465 C.ar    1  UNL1       -0.0261
     10 C         141.9678  139.5991  168.8769 C.ar    1  UNL1       -0.0041
     11 C         141.2566  140.7965  169.4341 C.ar    1  UNL1        0.0064
     12 C         141.2326  142.0816  168.6610 C.ar    1  UNL1        0.0342
     13 BR        140.5213  143.2789  169.2183 Br      1  UNL1       -0.0490
     14 C         141.9198  142.1694  167.3306 C.ar    1  UNL1        0.0021
     15 C         142.6310  140.9721  166.7734 C.ar    1  UNL1       -0.0249
     16 C         143.9574  141.2971  164.1068 C.3     1  UNL1        0.0761
     17 C         144.8787  142.5885  161.4042 C.3     1  UNL1        0.0294
     18 C         144.3835  142.5615  159.9885 C.3     1  UNL1        0.0666
     19 S         143.9208  141.2708  159.3803 S.3     1  UNL1       -0.0756
     20 C         142.1360  138.8056  161.7893 C.ar    1  UNL1        0.2029
     21 N         143.3774  138.0339  161.4522 N.ar    1  UNL1       -0.1250
     22 N         144.1970  138.8635  160.5088 N.ar    1  UNL1       -0.1220
     23 C         143.4622  140.1479  160.2628 C.ar    1  UNL1        0.1933
     24 N         142.1885  140.1121  161.0541 N.ar    1  UNL1       -0.2860
     25 C         141.1496  141.1930  161.1020 C.3     1  UNL1        0.1341
     26 C         139.0688  138.1278  160.9047 C.3     1  UNL1        0.0556
     27 C         139.6256  138.0391  162.2947 C.ar    1  UNL1        0.1001
     28 N         138.8703  137.6233  163.5221 N.ar    1  UNL1       -0.2085
     29 C         139.8134  137.6778  164.6874 C.ar    1  UNL1        0.2849
     30 O         141.1515  138.1273  164.1800 O.2     1  UNL1       -0.4283
     31 C         141.0354  138.3506  162.7013 C.ar    1  UNL1        0.1964
@<TRIPOS>BOND
     1    26    27    1
     2    27    28   ar
     3    28    29   ar
     4    29    30   ar
     5    30    31   ar
     6    31    20    1
     7    20    21   ar
     8    21    22   ar
     9    22    23   ar
    10    23    19    1
    11    19    18    1
    12    18    17    1
    13    17     1    1
    14     1     2    1
    15     2     3    1
    16     3     4    1
    17     4     5    1
    18     5     6    1
    19     6     7    1
    20     7     8    1
    21     8     9    1
    22     9    10   ar
    23    10    11   ar
    24    11    12   ar
    25    12    13    1
    26    12    14   ar
    27    14    15   ar
    28     5    16    1
    29    23    24   ar
    30    24    25    1
    31    31    27   ar
    32    24    20   ar
    33    16     2    1
    34    15     5    1
    35    15     9   ar
@<TRIPOS>MOLECULE
*****
 31 35 0 0 0
SMALL
GASTEIGER

@<TRIPOS>ATOM
      1 C         142.7606  138.4785  162.5417 C.3     1  UNL1        0.0730
      2 N         142.1910  138.9172  163.8581 N.3     1  UNL1       -0.2724
      3 C         142.9042  139.7236  164.9027 C.3     1  UNL1        0.0725
      4 C         141.9620  139.9312  166.0512 C.3     1  UNL1        0.0227
      5 C         140.6665  139.2532  165.7166 C.3     1  UNL1        0.0347
      6 C         139.4377  138.5330  165.2461 C.3     1  UNL1        0.0058
      7 C         138.2154  138.4893  166.1145 C.3     1  UNL1        0.0050
      8 C         138.2219  139.1658  167.4532 C.3     1  UNL1        0.0260
      9 C         139.4507  139.8860  167.9237 C.ar    1  UNL1       -0.0261
     10 C         139.4572  140.5625  169.2624 C.ar    1  UNL1       -0.0041
     11 C         140.6860  141.2827  169.7328 C.ar    1  UNL1        0.0064
     12 C         141.9083  141.3264  168.8646 C.ar    1  UNL1        0.0342
     13 BR        143.1371  142.0466  169.3350 Br      1  UNL1       -0.0490
     14 C         141.9018  140.6499  167.5258 C.ar    1  UNL1        0.0021
     15 C         140.6730  139.9297  167.0554 C.ar    1  UNL1       -0.0249
     16 C         140.8080  138.6264  164.3611 C.3     1  UNL1        0.0761
     17 C         144.1204  138.9496  162.1185 C.3     1  UNL1        0.0294
     18 C         144.2522  140.0349  161.0914 C.3     1  UNL1        0.0666
     19 S         144.5266  141.4454  161.5216 S.3     1  UNL1       -0.0756
     20 C         141.3564  143.1668  162.9542 C.ar    1  UNL1        0.2029
     21 N         142.4026  143.6341  163.9223 N.ar    1  UNL1       -0.1250
     22 N         143.7175  143.0462  163.5035 N.ar    1  UNL1       -0.1220
     23 C         143.4839  142.2154  162.2765 C.ar    1  UNL1        0.1933
     24 N         142.0248  142.2899  161.9371 N.ar    1  UNL1       -0.2860
     25 C         141.3520  141.6075  160.7831 C.3     1  UNL1        0.1341
     26 C         140.0235  145.9679  161.9410 C.3     1  UNL1        0.0556
     27 C         139.2853  144.8026  162.5302 C.ar    1  UNL1        0.1001
     28 N         137.8049  144.7202  162.7573 N.ar    1  UNL1       -0.2085
     29 C         137.5026  143.3818  163.3633 C.ar    1  UNL1        0.2849
     30 O         138.7962  142.6370  163.5108 O.2     1  UNL1       -0.4283
     31 C         139.8980  143.5151  162.9960 C.ar    1  UNL1        0.1964
@<TRIPOS>BOND
     1    26    27    1
     2    27    28   ar
     3    28    29   ar
     4    29    30   ar
     5    30    31   ar
     6    31    20    1
     7    20    21   ar
     8    21    22   ar
     9    22    23   ar
    10    23    19    1
    11    19    18    1
    12    18    17    1
    13    17     1    1
    14     1     2    1
    15     2     3    1
    16     3     4    1
    17     4     5    1
    18     5     6    1
    19     6     7    1
    20     7     8    1
    21     8     9    1
    22     9    10   ar
    23    10    11   ar
    24    11    12   ar
    25    12    13    1
    26    12    14   ar
    27    14    15   ar
    28     5    16    1
    29    23    24   ar
    30    24    25    1
    31    31    27   ar
    32    24    20   ar
    33    16     2    1
    34    15     5    1
    35    15     9   ar
@<TRIPOS>MOLECULE
*****
 31 35 0 0 0
SMALL
GASTEIGER

@<TRIPOS>ATOM
      1 C         141.9668  143.6146  159.2931 C.3     1  UNL1        0.0730
      2 N         142.2352  142.6744  160.4306 N.3     1  UNL1       -0.2724
      3 C         141.2712  141.6715  160.9918 C.3     1  UNL1        0.0725
      4 C         141.9550  140.9494  162.1147 C.3     1  UNL1        0.0227
      5 C         143.3416  141.5060  162.2475 C.3     1  UNL1        0.0347
      6 C         144.6925  142.1578  162.2607 C.3     1  UNL1        0.0058
      7 C         145.7246  141.7243  163.2591 C.3     1  UNL1        0.0050
      8 C         145.4059  140.6390  164.2443 C.3     1  UNL1        0.0260
      9 C         144.0550  139.9872  164.2311 C.ar    1  UNL1       -0.0261
     10 C         143.7362  138.9019  165.2162 C.ar    1  UNL1       -0.0041
     11 C         142.3853  138.2501  165.2030 C.ar    1  UNL1        0.0064
     12 C         141.3532  138.6836  164.2047 C.ar    1  UNL1        0.0342
     13 BR        140.0023  138.0318  164.1915 Br      1  UNL1       -0.0490
     14 C         141.6719  139.7689  163.2195 C.ar    1  UNL1        0.0021
     15 C         143.0228  140.4207  163.2327 C.ar    1  UNL1       -0.0249
     16 C         143.5148  142.5721  161.2067 C.3     1  UNL1        0.0761
     17 C         141.4745  145.0044  159.5689 C.3     1  UNL1        0.0294
     18 C         140.1471  145.2114  160.2362 C.3     1  UNL1        0.0666
     19 S         140.0865  145.7532  161.6336 S.3     1  UNL1       -0.0756
     20 C         141.0497  143.4394  164.5974 C.ar    1  UNL1        0.2029
     21 N         142.3272  144.1993  164.3958 N.ar    1  UNL1       -0.1250
     22 N         142.1219  145.1585  163.2610 N.ar    1  UNL1       -0.1220
     23 C         140.7174  144.9915  162.7613 C.ar    1  UNL1        0.1933
     24 N         140.0548  143.9291  163.5872 N.ar    1  UNL1       -0.2860
     25 C         138.6448  143.4418  163.4305 C.3     1  UNL1        0.1341
     26 C         143.2194  142.3624  166.7842 C.3     1  UNL1        0.0556
     27 C         141.8066  141.8816  166.6334 C.ar    1  UNL1        0.1001
     28 N         141.1431  140.8212  167.4613 N.ar    1  UNL1       -0.2085
     29 C         139.7356  140.6609  166.9678 C.ar    1  UNL1        0.2849
     30 O         139.5294  141.6222  165.8349 O.2     1  UNL1       -0.4283
     31 C         140.8093  142.3766  165.6283 C.ar    1  UNL1        0.1964
@<TRIPOS>BOND
     1    26    27    1
     2    27    28   ar
     3    28    29   ar
     4    29    30   ar
     5    30    31   ar
     6    31    20    1
     7    20    21   ar
     8    21    22   ar
     9    22    23   ar
    10    23    19    1
    11    19    18    1
    12    18    17    1
    13    17     1    1
    14     1     2    1
    15     2     3    1
    16     3     4    1
    17     4     5    1
    18     5     6    1
    19     6     7    1
    20     7     8    1
    21     8     9    1
    22     9    10   ar
    23    10    11   ar
    24    11    12   ar
    25    12    13    1
    26    12    14   ar
    27    14    15   ar
    28     5    16    1
    29    23    24   ar
    30    24    25    1
    31    31    27   ar
    32    24    20   ar
    33    16     2    1
    34    15     5    1
    35    15     9   ar
@<TRIPOS>MOLECULE
*****
 31 35 0 0 0
SMALL
GASTEIGER

@<TRIPOS>ATOM
      1 C         138.0634  139.1372  162.5312 C.3     1  UNL1        0.0730
      2 N         138.8766  139.2309  163.7881 N.3     1  UNL1       -0.2724
      3 C         138.3741  139.6651  165.1331 C.3     1  UNL1        0.0725
      4 C         139.5221  139.6095  166.0969 C.3     1  UNL1        0.0227
      5 C         140.7341  139.1408  165.3477 C.3     1  UNL1        0.0347
      6 C         141.8545  138.6649  164.4711 C.3     1  UNL1        0.0058
      7 C         143.2248  138.4653  165.0476 C.3     1  UNL1        0.0050
      8 C         143.4748  138.7416  166.5006 C.3     1  UNL1        0.0260
      9 C         142.3544  139.2174  167.3771 C.ar    1  UNL1       -0.0261
     10 C         142.6044  139.4937  168.8301 C.ar    1  UNL1       -0.0041
     11 C         141.4841  139.9695  169.7066 C.ar    1  UNL1        0.0064
     12 C         140.1138  140.1692  169.1302 C.ar    1  UNL1        0.0342
     13 BR        138.9934  140.6450  170.0068 Br      1  UNL1       -0.0490
     14 C         139.8638  139.8929  167.6772 C.ar    1  UNL1        0.0021
     15 C         140.9841  139.4171  166.8007 C.ar    1  UNL1       -0.0249
     16 C         140.3352  138.9068  163.9207 C.3     1  UNL1        0.0761
     17 C         138.4322  138.1414  161.4718 C.3     1  UNL1        0.0294
     18 C         139.4636  138.4909  160.4403 C.3     1  UNL1        0.0666
     19 S         139.7544  139.9288  160.1276 S.3     1  UNL1       -0.0756
     20 C         142.5043  142.0337  161.8806 C.ar    1  UNL1        0.2029
     21 N         143.3373  141.0984  161.0551 N.ar    1  UNL1       -0.1250
     22 N         142.4085  140.1960  160.2980 N.ar    1  UNL1       -0.1220
     23 C         141.0015  140.5737  160.6555 C.ar    1  UNL1        0.1933
     24 N         141.0607  141.7094  161.6336 N.ar    1  UNL1       -0.2860
     25 C         139.8831  142.3997  162.2555 C.3     1  UNL1        0.1341
     26 C         144.6787  141.6229  164.2792 C.3     1  UNL1        0.0556
     27 C         144.0231  142.9164  163.8953 C.ar    1  UNL1        0.1001
     28 N         144.2520  144.2481  164.5466 N.ar    1  UNL1       -0.2085
     29 C         143.3940  145.2600  163.8466 C.ar    1  UNL1        0.2849
     30 O         142.6348  144.5536  162.7627 O.2     1  UNL1       -0.4283
     31 C         143.0237  143.1052  162.7928 C.ar    1  UNL1        0.1964
@<TRIPOS>BOND
     1    26    27    1
     2    27    28   ar
     3    28    29   ar
     4    29    30   ar
     5    30    31   ar
     6    31    20    1
     7    20    21   ar
     8    21    22   ar
     9    22    23   ar
    10    23    19    1
    11    19    18    1
    12    18    17    1
    13    17     1    1
    14     1     2    1
    15     2     3    1
    16     3     4    1
    17     4     5    1
    18     5     6    1
    19     6     7    1
    20     7     8    1
    21     8     9    1
    22     9    10   ar
    23    10    11   ar
    24    11    12   ar
    25    12    13    1
    26    12    14   ar
    27    14    15   ar
    28     5    16    1
    29    23    24   ar
    30    24    25    1
    31    31    27   ar
    32    24    20   ar
    33    16     2    1
    34    15     5    1
    35    15     9   ar
@<TRIPOS>MOLECULE
*****
 31 35 0 0 0
SMALL
GASTEIGER

@<TRIPOS>ATOM
      1 C         144.5348  142.7385  164.9585 C.3     1  UNL1        0.0730
      2 N         143.4590  142.2400  165.8773 N.3     1  UNL1       -0.2724
      3 C         142.2989  141.3727  165.4879 C.3     1  UNL1        0.0725
      4 C         141.4774  141.1181  166.7168 C.3     1  UNL1        0.0227
      5 C         142.1299  141.8280  167.8659 C.3     1  UNL1        0.0347
      6 C         142.8913  142.5862  168.9125 C.3     1  UNL1        0.0058
      7 C         142.4045  142.6003  170.3312 C.3     1  UNL1        0.0050
      8 C         141.1564  141.8562  170.7033 C.3     1  UNL1        0.0260
      9 C         140.3950  141.0980  169.6567 C.ar    1  UNL1       -0.0261
     10 C         139.1469  140.3539  170.0288 C.ar    1  UNL1       -0.0041
     11 C         138.3856  139.5957  168.9821 C.ar    1  UNL1        0.0064
     12 C         138.8723  139.5816  167.5634 C.ar    1  UNL1        0.0342
     13 BR        138.1109  138.8235  166.5168 Br      1  UNL1       -0.0490
     14 C         140.1204  140.3257  167.1913 C.ar    1  UNL1        0.0021
     15 C         140.8818  141.0839  168.2380 C.ar    1  UNL1       -0.0249
     16 C         143.3547  142.5215  167.3470 C.3     1  UNL1        0.0761
     17 C         144.1805  143.6194  163.7972 C.3     1  UNL1        0.0294
     18 C         143.1457  144.6932  163.9586 C.3     1  UNL1        0.0666
     19 S         141.9132  144.6817  163.1038 S.3     1  UNL1       -0.0756
     20 C         139.5011  141.6408  163.1245 C.ar    1  UNL1        0.2029
     21 N         138.9363  142.4665  164.2422 N.ar    1  UNL1       -0.1250
     22 N         139.7711  143.7061  164.3705 N.ar    1  UNL1       -0.1220
     23 C         140.8519  143.6465  163.3320 C.ar    1  UNL1        0.1933
     24 N         140.6851  142.3701  162.5620 N.ar    1  UNL1       -0.2860
     25 C         141.5503  141.9048  161.4284 C.3     1  UNL1        0.1341
     26 C         140.8221  138.7205  163.7382 C.3     1  UNL1        0.0556
     27 C         139.5817  138.9757  162.9343 C.ar    1  UNL1        0.1001
     28 N         138.7306  137.9335  162.2714 N.ar    1  UNL1       -0.2085
     29 C         137.5975  138.6317  161.5796 C.ar    1  UNL1        0.2849
     30 O         137.7482  140.1054  161.8150 O.2     1  UNL1       -0.4283
     31 C         138.9745  140.3180  162.6522 C.ar    1  UNL1        0.1964
@<TRIPOS>BOND
     1    26    27    1
     2    27    28   ar
     3    28    29   ar
     4    29    30   ar
     5    30    31   ar
     6    31    20    1
     7    20    21   ar
     8    21    22   ar
     9    22    23   ar
    10    23    19    1
    11    19    18    1
    12    18    17    1
    13    17     1    1
    14     1     2    1
    15     2     3    1
    16     3     4    1
    17     4     5    1
    18     5     6    1
    19     6     7    1
    20     7     8    1
    21     8     9    1
    22     9    10   ar
    23    10    11   ar
    24    11    12   ar
    25    12    13    1
    26    12    14   ar
    27    14    15   ar
    28     5    16    1
    29    23    24   ar
    30    24    25    1
    31    31    27   ar
    32    24    20   ar
    33    16     2    1
    34    15     5    1
    35    15     9   ar
