@<TRIPOS>MOLECULE
*****
 29 31 0 0 0
SMALL
GASTEIGER

@<TRIPOS>ATOM
      1 N         139.9624  140.9453  167.7128 N.ar    1  UNL1       -0.2490
      2 C         139.3685  139.6031  168.0222 C.ar    1  UNL1        0.1024
      3 C         138.5352  139.1831  166.8478 C.ar    1  UNL1        0.1051
      4 C         138.6141  140.2657  165.8125 C.ar    1  UNL1        0.1578
      5 N         139.4962  141.3548  166.3471 N.ar    1  UNL1       -0.1539
      6 C         142.2672  141.2732  168.8663 C.3     1  UNL1        0.1161
      7 C         143.1689  142.0666  169.7648 C.3     1  UNL1        0.0463
      8 C         142.6678  143.3256  170.4081 C.3     1  UNL1        0.1117
      9 O         143.5696  144.1190  171.3066 O.3     1  UNL1       -0.3844
     10 C         141.2649  143.7911  170.1531 C.3     1  UNL1        0.0313
     11 C         140.3631  142.9976  169.2546 C.3     1  UNL1        0.0279
     12 C         140.8643  141.7387  168.6112 C.3     1  UNL1        0.1194
     13 H         144.4342  143.6830  171.3636 H       1  UNL1        0.2103
     14 N         143.2695  138.7553  167.5796 N.1     1  UNL1       -0.1958
     15 C         142.7683  140.0143  168.2229 C.1     1  UNL1        0.0741
     16 C         137.7592  137.9048  166.7294 C.2     1  UNL1        0.2470
     17 N         136.6956  137.5772  167.7350 N.am    1  UNL1       -0.3252
     18 O         138.0469  136.9542  165.6054 O.2     1  UNL1       -0.2702
     19 H         136.5067  138.2012  168.4728 H       1  UNL1        0.1453
     20 H         136.1863  136.7383  167.6573 H       1  UNL1        0.1453
     21 N         137.9309  140.2602  164.4771 N.pl3   1  UNL1       -0.2964
     22 H         136.9887  140.5365  164.4051 H       1  UNL1        0.1537
     23 C         138.6832  139.8336  163.2516 C.ar    1  UNL1        0.0495
     24 C         139.7577  140.7147  162.6865 C.ar    1  UNL1        0.0155
     25 C         140.5100  140.2881  161.4610 C.ar    1  UNL1        0.0127
     26 C         140.1878  138.9804  160.8005 C.ar    1  UNL1        0.0578
     27 CL        140.9402  138.5538  159.5749 Cl      1  UNL1       -0.0822
     28 C         139.1135  138.0994  161.3655 C.ar    1  UNL1        0.0127
     29 C         138.3611  138.5260  162.5911 C.ar    1  UNL1        0.0155
@<TRIPOS>BOND
     1    14    15    3
     2     6    15    1
     3     6     7    1
     4     7     8    1
     5     8     9    1
     6     8    10    1
     7    10    11    1
     8    11    12    1
     9    12     1    1
    10     1     2   ar
    11     2     3   ar
    12     3    16    1
    13    16    17   am
    14    16    18    2
    15     3     4   ar
    16     4    21    1
    17    21    23    1
    18    23    24   ar
    19    24    25   ar
    20    25    26   ar
    21    26    27    1
    22    26    28   ar
    23    28    29   ar
    24     4     5   ar
    25    12     6    1
    26     5     1   ar
    27    29    23   ar
    28     9    13    1
    29    17    19    1
    30    17    20    1
    31    21    22    1
@<TRIPOS>MOLECULE
*****
 29 31 0 0 0
SMALL
GASTEIGER

@<TRIPOS>ATOM
      1 N         142.6627  141.1171  166.5649 N.ar    1  UNL1       -0.2490
      2 C         143.4484  140.2353  165.6402 C.ar    1  UNL1        0.1024
      3 C         144.0029  141.0929  164.5416 C.ar    1  UNL1        0.1051
      4 C         143.5598  142.5048  164.7872 C.ar    1  UNL1        0.1578
      5 N         142.7315  142.5197  166.0377 N.ar    1  UNL1       -0.1539
      6 C         140.4376  140.5990  167.8021 C.3     1  UNL1        0.1161
      7 C         139.7107  140.1559  169.0371 C.3     1  UNL1        0.0463
      8 C         140.4819  139.7880  170.2699 C.3     1  UNL1        0.1117
      9 O         139.7549  139.3450  171.5050 O.3     1  UNL1       -0.3844
     10 C         141.9800  139.8631  170.2678 C.3     1  UNL1        0.0313
     11 C         142.7069  140.3061  169.0327 C.3     1  UNL1        0.0279
     12 C         141.9357  140.6740  167.7999 C.3     1  UNL1        0.1194
     13 H         138.7994  139.3526  171.3380 H       1  UNL1        0.2103
     14 N         138.8952  141.3349  165.3364 N.1     1  UNL1       -0.1958
     15 C         139.6664  140.9669  166.5692 C.1     1  UNL1        0.0741
     16 C         144.8515  140.6215  163.3980 C.2     1  UNL1        0.2470
     17 N         144.7147  139.2160  162.8921 N.am    1  UNL1       -0.3252
     18 O         145.8368  141.5556  162.7603 O.2     1  UNL1       -0.2702
     19 H         144.0680  138.6030  163.3107 H       1  UNL1        0.1453
     20 H         145.2717  138.9066  162.1416 H       1  UNL1        0.1453
     21 N         143.8874  143.6931  163.9325 N.pl3   1  UNL1       -0.2964
     22 H         144.7230  144.1918  164.0822 H       1  UNL1        0.1537
     23 C         142.9420  144.1216  162.8496 C.ar    1  UNL1        0.0495
     24 C         141.8203  145.0666  163.1639 C.ar    1  UNL1        0.0155
     25 C         140.8750  145.4950  162.0810 C.ar    1  UNL1        0.0127
     26 C         141.0513  144.9785  160.6838 C.ar    1  UNL1        0.0578
     27 CL        140.1059  145.4069  159.6008 Cl      1  UNL1       -0.0822
     28 C         142.1730  144.0335  160.3696 C.ar    1  UNL1        0.0127
     29 C         143.1184  143.6051  161.4524 C.ar    1  UNL1        0.0155
@<TRIPOS>BOND
     1    14    15    3
     2     6    15    1
     3     6     7    1
     4     7     8    1
     5     8     9    1
     6     8    10    1
     7    10    11    1
     8    11    12    1
     9    12     1    1
    10     1     2   ar
    11     2     3   ar
    12     3    16    1
    13    16    17   am
    14    16    18    2
    15     3     4   ar
    16     4    21    1
    17    21    23    1
    18    23    24   ar
    19    24    25   ar
    20    25    26   ar
    21    26    27    1
    22    26    28   ar
    23    28    29   ar
    24     4     5   ar
    25    12     6    1
    26     5     1   ar
    27    29    23   ar
    28     9    13    1
    29    17    19    1
    30    17    20    1
    31    21    22    1
@<TRIPOS>MOLECULE
*****
 29 31 0 0 0
SMALL
GASTEIGER

@<TRIPOS>ATOM
      1 N         140.3464  143.0937  165.8564 N.ar    1  UNL1       -0.2490
      2 C         139.2443  143.6706  165.0182 C.ar    1  UNL1        0.1024
      3 C         139.8712  144.4149  163.8767 C.ar    1  UNL1        0.1051
      4 C         141.3608  144.2979  164.0094 C.ar    1  UNL1        0.1578
      5 N         141.6544  143.4813  165.2329 N.ar    1  UNL1       -0.1539
      6 C         139.7727  140.8307  166.9965 C.3     1  UNL1        0.1161
      7 C         139.5976  140.0102  168.2399 C.3     1  UNL1        0.0463
      8 C         139.8209  140.6320  169.5865 C.3     1  UNL1        0.1117
      9 O         139.6457  139.8114  170.8299 O.3     1  UNL1       -0.3844
     10 C         140.2194  142.0744  169.6898 C.3     1  UNL1        0.0313
     11 C         140.3945  142.8949  168.4464 C.3     1  UNL1        0.0279
     12 C         140.1712  142.2731  167.0998 C.3     1  UNL1        0.1194
     13 H         139.3891  138.9079  170.5876 H       1  UNL1        0.2103
     14 N         139.3260  139.5870  164.3033 N.1     1  UNL1       -0.1958
     15 C         139.5494  140.2088  165.6499 C.1     1  UNL1        0.0741
     16 C         139.1374  145.1475  162.7928 C.2     1  UNL1        0.2470
     17 N         137.7350  144.7519  162.4369 N.am    1  UNL1       -0.3252
     18 O         139.8061  146.2758  162.0648 O.2     1  UNL1       -0.2702
     19 H         137.2961  144.0114  162.9147 H       1  UNL1        0.1453
     20 H         137.2534  145.2328  161.7255 H       1  UNL1        0.1453
     21 N         142.3781  144.8930  163.0815 N.pl3   1  UNL1       -0.2964
     22 H         142.7031  145.8103  163.2303 H       1  UNL1        0.1537
     23 C         142.9002  144.0904  161.9268 C.ar    1  UNL1        0.0495
     24 C         144.2368  143.4167  162.0251 C.ar    1  UNL1        0.0155
     25 C         144.7588  142.6142  160.8704 C.ar    1  UNL1        0.0127
     26 C         143.9443  142.4853  159.6174 C.ar    1  UNL1        0.0578
     27 CL        144.4663  141.6827  158.4627 Cl      1  UNL1       -0.0822
     28 C         142.6077  143.1590  159.5191 C.ar    1  UNL1        0.0127
     29 C         142.0856  143.9615  160.6738 C.ar    1  UNL1        0.0155
@<TRIPOS>BOND
     1    14    15    3
     2     6    15    1
     3     6     7    1
     4     7     8    1
     5     8     9    1
     6     8    10    1
     7    10    11    1
     8    11    12    1
     9    12     1    1
    10     1     2   ar
    11     2     3   ar
    12     3    16    1
    13    16    17   am
    14    16    18    2
    15     3     4   ar
    16     4    21    1
    17    21    23    1
    18    23    24   ar
    19    24    25   ar
    20    25    26   ar
    21    26    27    1
    22    26    28   ar
    23    28    29   ar
    24     4     5   ar
    25    12     6    1
    26     5     1   ar
    27    29    23   ar
    28     9    13    1
    29    17    19    1
    30    17    20    1
    31    21    22    1
@<TRIPOS>MOLECULE
*****
 29 31 0 0 0
SMALL
GASTEIGER

@<TRIPOS>ATOM
      1 N         142.1287  141.3310  166.3361 N.ar    1  UNL1       -0.2490
      2 C         143.1854  140.4485  165.7407 C.ar    1  UNL1        0.1024
      3 C         143.8955  141.2297  164.6751 C.ar    1  UNL1        0.1051
      4 C         143.2776  142.5951  164.6119 C.ar    1  UNL1        0.1578
      5 N         142.1857  142.6577  165.6384 N.ar    1  UNL1       -0.1539
      6 C         141.5139  141.2873  168.8600 C.3     1  UNL1        0.1161
      7 C         140.5665  140.9096  169.9599 C.3     1  UNL1        0.0463
      8 C         139.2866  140.1978  169.6358 C.3     1  UNL1        0.1117
      9 O         138.3392  139.8201  170.7357 O.3     1  UNL1       -0.3844
     10 C         138.9540  139.8638  168.2118 C.3     1  UNL1        0.0313
     11 C         139.9014  140.2415  167.1119 C.3     1  UNL1        0.0279
     12 C         141.1813  140.9533  167.4360 C.3     1  UNL1        0.1194
     13 H         138.7026  140.1068  171.5881 H       1  UNL1        0.2103
     14 N         144.0739  142.7109  169.5083 N.1     1  UNL1       -0.1958
     15 C         142.7939  141.9991  169.1841 C.1     1  UNL1        0.0741
     16 C         145.0251  140.7327  163.8224 C.2     1  UNL1        0.2470
     17 N         145.2060  139.2603  163.6008 N.am    1  UNL1       -0.3252
     18 O         145.9738  141.7082  163.1913 O.2     1  UNL1       -0.2702
     19 H         144.5833  138.6200  164.0150 H       1  UNL1        0.1453
     20 H         145.9474  138.9341  163.0412 H       1  UNL1        0.1453
     21 N         143.6809  143.7032  163.6848 N.pl3   1  UNL1       -0.2964
     22 H         144.5295  144.1811  163.8287 H       1  UNL1        0.1537
     23 C         142.7911  144.0833  162.5386 C.ar    1  UNL1        0.0495
     24 C         141.6380  145.0164  162.7617 C.ar    1  UNL1        0.0155
     25 C         140.7482  145.3964  161.6155 C.ar    1  UNL1        0.0127
     26 C         141.0116  144.8434  160.2462 C.ar    1  UNL1        0.0578
     27 CL        140.1218  145.2235  159.0999 Cl      1  UNL1       -0.0822
     28 C         142.1646  143.9104  160.0232 C.ar    1  UNL1        0.0127
     29 C         143.0544  143.5303  161.1694 C.ar    1  UNL1        0.0155
@<TRIPOS>BOND
     1    14    15    3
     2     6    15    1
     3     6     7    1
     4     7     8    1
     5     8     9    1
     6     8    10    1
     7    10    11    1
     8    11    12    1
     9    12     1    1
    10     1     2   ar
    11     2     3   ar
    12     3    16    1
    13    16    17   am
    14    16    18    2
    15     3     4   ar
    16     4    21    1
    17    21    23    1
    18    23    24   ar
    19    24    25   ar
    20    25    26   ar
    21    26    27    1
    22    26    28   ar
    23    28    29   ar
    24     4     5   ar
    25    12     6    1
    26     5     1   ar
    27    29    23   ar
    28     9    13    1
    29    17    19    1
    30    17    20    1
    31    21    22    1
@<TRIPOS>MOLECULE
*****
 29 31 0 0 0
SMALL
GASTEIGER

@<TRIPOS>ATOM
      1 N         139.4349  140.0994  165.9991 N.ar    1  UNL1       -0.2490
      2 C         140.2764  139.0309  165.3665 C.ar    1  UNL1        0.1024
      3 C         139.7047  138.7316  164.0124 C.ar    1  UNL1        0.1051
      4 C         138.5098  139.6151  163.8081 C.ar    1  UNL1        0.1578
      5 N         138.3430  140.4604  165.0360 N.ar    1  UNL1       -0.1539
      6 C         140.3509  142.0193  167.4907 C.3     1  UNL1        0.1161
      7 C         140.5638  142.6211  168.8481 C.3     1  UNL1        0.0463
      8 C         140.0735  141.9047  170.0713 C.3     1  UNL1        0.1117
      9 O         140.2864  142.5065  171.4288 O.3     1  UNL1       -0.3844
     10 C         139.3704  140.5865  169.9372 C.3     1  UNL1        0.0313
     11 C         139.1575  139.9848  168.5798 C.3     1  UNL1        0.0279
     12 C         139.6478  140.7012  167.3566 C.3     1  UNL1        0.1194
     13 H         140.7524  143.3524  171.3380 H       1  UNL1        0.2103
     14 N         141.3314  143.4522  165.0441 N.1     1  UNL1       -0.1958
     15 C         140.8412  142.7358  166.2674 C.1     1  UNL1        0.0741
     16 C         140.2348  137.7254  163.0343 C.2     1  UNL1        0.2470
     17 N         141.3675  136.8234  163.4259 N.am    1  UNL1       -0.3252
     18 O         139.6322  137.6213  161.6646 O.2     1  UNL1       -0.2702
     19 H         141.7630  136.8917  164.3248 H       1  UNL1        0.1453
     20 H         141.7154  136.1630  162.7839 H       1  UNL1        0.1453
     21 N         137.6352  139.6475  162.5900 N.pl3   1  UNL1       -0.2964
     22 H         136.8322  139.0797  162.5452 H       1  UNL1        0.1537
     23 C         137.9841  140.5451  161.4399 C.ar    1  UNL1        0.0495
     24 C         138.5005  141.9294  161.6987 C.ar    1  UNL1        0.0155
     25 C         138.8494  142.8269  160.5487 C.ar    1  UNL1        0.0127
     26 C         138.6819  142.3401  159.1398 C.ar    1  UNL1        0.0578
     27 CL        139.0309  143.2377  157.9896 Cl      1  UNL1       -0.0822
     28 C         138.1656  140.9558  158.8810 C.ar    1  UNL1        0.0127
     29 C         137.8167  140.0583  160.0310 C.ar    1  UNL1        0.0155
@<TRIPOS>BOND
     1    14    15    3
     2     6    15    1
     3     6     7    1
     4     7     8    1
     5     8     9    1
     6     8    10    1
     7    10    11    1
     8    11    12    1
     9    12     1    1
    10     1     2   ar
    11     2     3   ar
    12     3    16    1
    13    16    17   am
    14    16    18    2
    15     3     4   ar
    16     4    21    1
    17    21    23    1
    18    23    24   ar
    19    24    25   ar
    20    25    26   ar
    21    26    27    1
    22    26    28   ar
    23    28    29   ar
    24     4     5   ar
    25    12     6    1
    26     5     1   ar
    27    29    23   ar
    28     9    13    1
    29    17    19    1
    30    17    20    1
    31    21    22    1
@<TRIPOS>MOLECULE
*****
 29 31 0 0 0
SMALL
GASTEIGER

@<TRIPOS>ATOM
      1 N         140.5757  142.0081  166.4425 N.ar    1  UNL1       -0.2490
      2 C         139.2829  141.6555  165.7685 C.ar    1  UNL1        0.1024
      3 C         138.9725  142.7307  164.7697 C.ar    1  UNL1        0.1051
      4 C         140.0736  143.7479  164.8264 C.ar    1  UNL1        0.1578
      5 N         141.0644  143.3012  165.8602 N.ar    1  UNL1       -0.1539
      6 C         141.2877  141.7122  168.9235 C.3     1  UNL1        0.1161
      7 C         141.9717  140.9121  169.9921 C.3     1  UNL1        0.0463
      8 C         142.6280  139.6078  169.6482 C.3     1  UNL1        0.1117
      9 O         143.3121  138.8078  170.7169 O.3     1  UNL1       -0.3844
     10 C         142.6002  139.1037  168.2358 C.3     1  UNL1        0.0313
     11 C         141.9161  139.9038  167.1673 C.3     1  UNL1        0.0279
     12 C         141.2598  141.2080  167.5111 C.3     1  UNL1        0.1194
     13 H         143.2384  139.2719  171.5654 H       1  UNL1        0.2103
     14 N         139.9751  144.3207  169.6113 N.1     1  UNL1       -0.1958
     15 C         140.6314  143.0164  169.2674 C.1     1  UNL1        0.0741
     16 C         137.7719  142.7802  163.8719 C.2     1  UNL1        0.2470
     17 N         136.9931  141.5293  163.5914 N.am    1  UNL1       -0.3252
     18 O         137.3501  144.0805  163.2546 O.2     1  UNL1       -0.2702
     19 H         137.2700  140.6758  163.9965 H       1  UNL1        0.1453
     20 H         136.2051  141.5618  163.0021 H       1  UNL1        0.1453
     21 N         140.1674  144.9929  163.9952 N.pl3   1  UNL1       -0.2964
     22 H         139.9360  145.8656  164.3879 H       1  UNL1        0.1537
     23 C         140.6136  144.9085  162.5656 C.ar    1  UNL1        0.0495
     24 C         141.7700  144.0292  162.1915 C.ar    1  UNL1        0.0155
     25 C         142.2161  143.9448  160.7620 C.ar    1  UNL1        0.0127
     26 C         141.5061  144.7395  159.7065 C.ar    1  UNL1        0.0578
     27 CL        141.9523  144.6551  158.2768 Cl      1  UNL1       -0.0822
     28 C         140.3498  145.6187  160.0805 C.ar    1  UNL1        0.0127
     29 C         139.9036  145.7032  161.5101 C.ar    1  UNL1        0.0155
@<TRIPOS>BOND
     1    14    15    3
     2     6    15    1
     3     6     7    1
     4     7     8    1
     5     8     9    1
     6     8    10    1
     7    10    11    1
     8    11    12    1
     9    12     1    1
    10     1     2   ar
    11     2     3   ar
    12     3    16    1
    13    16    17   am
    14    16    18    2
    15     3     4   ar
    16     4    21    1
    17    21    23    1
    18    23    24   ar
    19    24    25   ar
    20    25    26   ar
    21    26    27    1
    22    26    28   ar
    23    28    29   ar
    24     4     5   ar
    25    12     6    1
    26     5     1   ar
    27    29    23   ar
    28     9    13    1
    29    17    19    1
    30    17    20    1
    31    21    22    1
@<TRIPOS>MOLECULE
*****
 29 31 0 0 0
SMALL
GASTEIGER

@<TRIPOS>ATOM
      1 N         139.7261  139.9637  166.0331 N.ar    1  UNL1       -0.2490
      2 C         138.5925  140.0726  165.0569 C.ar    1  UNL1        0.1024
      3 C         138.9306  139.2358  163.8588 C.ar    1  UNL1        0.1051
      4 C         140.2731  138.6097  164.0946 C.ar    1  UNL1        0.1578
      5 N         140.7648  139.0596  165.4384 N.ar    1  UNL1       -0.1539
      6 C         140.3764  142.0237  167.4766 C.3     1  UNL1        0.1161
      7 C         140.4572  142.7001  168.8130 C.3     1  UNL1        0.0463
      8 C         139.9684  141.9931  170.0423 C.3     1  UNL1        0.1117
      9 O         140.0492  142.6696  171.3787 O.3     1  UNL1       -0.3844
     10 C         139.3988  140.6096  169.9352 C.3     1  UNL1        0.0313
     11 C         139.3181  139.9332  168.5988 C.3     1  UNL1        0.0279
     12 C         139.8069  140.6402  167.3695 C.3     1  UNL1        0.1194
     13 H         140.4391  143.5513  171.2717 H       1  UNL1        0.2103
     14 N         141.3541  143.4379  165.0181 N.1     1  UNL1       -0.1958
     15 C         140.8653  142.7308  166.2473 C.1     1  UNL1        0.0741
     16 C         138.0761  139.0565  162.6390 C.2     1  UNL1        0.2470
     17 N         137.3307  140.2258  162.0670 N.am    1  UNL1       -0.3252
     18 O         137.9670  137.7080  161.9913 O.2     1  UNL1       -0.2702
     19 H         137.4023  141.1109  162.4921 H       1  UNL1        0.1453
     20 H         136.7699  140.1081  161.2664 H       1  UNL1        0.1453
     21 N         140.9969  137.6944  163.1521 N.pl3   1  UNL1       -0.2964
     22 H         140.9684  136.7204  163.2926 H       1  UNL1        0.1537
     23 C         141.7642  138.2631  161.9954 C.ar    1  UNL1        0.0495
     24 C         143.2317  138.5413  162.1330 C.ar    1  UNL1        0.0155
     25 C         143.9989  139.1100  160.9763 C.ar    1  UNL1        0.0127
     26 C         143.2985  139.4005  159.6821 C.ar    1  UNL1        0.0578
     27 CL        144.0658  139.9693  158.5253 Cl      1  UNL1       -0.0822
     28 C         141.8311  139.1224  159.5445 C.ar    1  UNL1        0.0127
     29 C         141.0638  138.5537  160.7012 C.ar    1  UNL1        0.0155
@<TRIPOS>BOND
     1    14    15    3
     2     6    15    1
     3     6     7    1
     4     7     8    1
     5     8     9    1
     6     8    10    1
     7    10    11    1
     8    11    12    1
     9    12     1    1
    10     1     2   ar
    11     2     3   ar
    12     3    16    1
    13    16    17   am
    14    16    18    2
    15     3     4   ar
    16     4    21    1
    17    21    23    1
    18    23    24   ar
    19    24    25   ar
    20    25    26   ar
    21    26    27    1
    22    26    28   ar
    23    28    29   ar
    24     4     5   ar
    25    12     6    1
    26     5     1   ar
    27    29    23   ar
    28     9    13    1
    29    17    19    1
    30    17    20    1
    31    21    22    1
@<TRIPOS>MOLECULE
*****
 29 31 0 0 0
SMALL
GASTEIGER

@<TRIPOS>ATOM
      1 N         141.8812  140.1085  166.3591 N.ar    1  UNL1       -0.2490
      2 C         142.0163  138.8373  165.5744 C.ar    1  UNL1        0.1024
      3 C         142.3435  139.2005  164.1563 C.ar    1  UNL1        0.1051
      4 C         142.4107  140.6963  164.0646 C.ar    1  UNL1        0.1578
      5 N         142.1250  141.2574  165.4260 N.ar    1  UNL1       -0.1539
      6 C         140.1558  139.9807  168.2974 C.3     1  UNL1        0.1161
      7 C         139.8336  140.0848  169.7586 C.3     1  UNL1        0.0463
      8 C         140.9144  140.4208  170.7429 C.3     1  UNL1        0.1117
      9 O         140.5921  140.5249  172.2042 O.3     1  UNL1       -0.3844
     10 C         142.3175  140.6527  170.2660 C.3     1  UNL1        0.0313
     11 C         142.6397  140.5486  168.8047 C.3     1  UNL1        0.0279
     12 C         141.5589  140.2126  167.8204 C.3     1  UNL1        0.1194
     13 H         139.6483  140.3474  172.3406 H       1  UNL1        0.2103
     14 N         137.9941  139.3086  166.3288 N.1     1  UNL1       -0.1958
     15 C         139.0749  139.6446  167.3131 C.1     1  UNL1        0.0741
     16 C         142.5648  138.2372  163.0280 C.2     1  UNL1        0.2470
     17 N         141.5750  137.1390  162.7745 N.am    1  UNL1       -0.3252
     18 O         143.7758  138.3721  162.1532 O.2     1  UNL1       -0.2702
     19 H         140.7802  137.0504  163.3486 H       1  UNL1        0.1453
     20 H         141.7203  136.5067  162.0339 H       1  UNL1        0.1453
     21 N         142.7109  141.4912  162.8285 N.pl3   1  UNL1       -0.2964
     22 H         143.4165  141.1924  162.2103 H       1  UNL1        0.1537
     23 C         141.9362  142.7415  162.5343 C.ar    1  UNL1        0.0495
     24 C         140.8386  142.7207  161.5121 C.ar    1  UNL1        0.0155
     25 C         140.0639  143.9709  161.2180 C.ar    1  UNL1        0.0127
     26 C         140.3867  145.2420  161.9460 C.ar    1  UNL1        0.0578
     27 CL        139.6120  146.4924  161.6519 Cl      1  UNL1       -0.0822
     28 C         141.4842  145.2629  162.9682 C.ar    1  UNL1        0.0127
     29 C         142.2590  144.0126  163.2624 C.ar    1  UNL1        0.0155
@<TRIPOS>BOND
     1    14    15    3
     2     6    15    1
     3     6     7    1
     4     7     8    1
     5     8     9    1
     6     8    10    1
     7    10    11    1
     8    11    12    1
     9    12     1    1
    10     1     2   ar
    11     2     3   ar
    12     3    16    1
    13    16    17   am
    14    16    18    2
    15     3     4   ar
    16     4    21    1
    17    21    23    1
    18    23    24   ar
    19    24    25   ar
    20    25    26   ar
    21    26    27    1
    22    26    28   ar
    23    28    29   ar
    24     4     5   ar
    25    12     6    1
    26     5     1   ar
    27    29    23   ar
    28     9    13    1
    29    17    19    1
    30    17    20    1
    31    21    22    1
@<TRIPOS>MOLECULE
*****
 29 31 0 0 0
SMALL
GASTEIGER

@<TRIPOS>ATOM
      1 N         139.6625  140.4503  166.3983 N.ar    1  UNL1       -0.2490
      2 C         139.5214  139.2527  165.5063 C.ar    1  UNL1        0.1024
      3 C         138.8072  139.6846  164.2600 C.ar    1  UNL1        0.1051
      4 C         138.5069  141.1492  164.3817 C.ar    1  UNL1        0.1578
      5 N         139.0355  141.6224  165.7032 N.ar    1  UNL1       -0.1539
      6 C         141.7878  140.7360  167.8651 C.3     1  UNL1        0.1161
      7 C         142.4412  140.7578  169.2151 C.3     1  UNL1        0.0463
      8 C         141.6225  140.5157  170.4485 C.3     1  UNL1        0.1117
      9 O         142.2759  140.5375  171.7986 O.3     1  UNL1       -0.3844
     10 C         140.1506  140.2518  170.3318 C.3     1  UNL1        0.0313
     11 C         139.4972  140.2300  168.9818 C.3     1  UNL1        0.0279
     12 C         140.3159  140.4721  167.7484 C.3     1  UNL1        0.1194
     13 H         143.2230  140.7203  171.6965 H       1  UNL1        0.2103
     14 N         143.4251  141.2203  165.3983 N.1     1  UNL1       -0.1958
     15 C         142.6065  140.9781  166.6317 C.1     1  UNL1        0.0741
     16 C         138.4551  138.8061  163.0962 C.2     1  UNL1        0.2470
     17 N         138.9629  137.3957  163.0405 N.am    1  UNL1       -0.3252
     18 O         137.5953  139.3379  161.9882 O.2     1  UNL1       -0.2702
     19 H         139.5272  137.0466  163.7677 H       1  UNL1        0.1453
     20 H         138.7318  136.8192  162.2766 H       1  UNL1        0.1453
     21 N         137.8018  141.9924  163.3610 N.pl3   1  UNL1       -0.2964
     22 H         136.8200  141.9655  163.2936 H       1  UNL1        0.1537
     23 C         138.5926  142.8767  162.4430 C.ar    1  UNL1        0.0495
     24 C         139.0997  142.3400  161.1373 C.ar    1  UNL1        0.0155
     25 C         139.8905  143.2242  160.2194 C.ar    1  UNL1        0.0127
     26 C         140.1743  144.6452  160.6072 C.ar    1  UNL1        0.0578
     27 CL        140.9651  145.5295  159.6892 Cl      1  UNL1       -0.0822
     28 C         139.6672  145.1818  161.9128 C.ar    1  UNL1        0.0127
     29 C         138.8764  144.2976  162.8308 C.ar    1  UNL1        0.0155
@<TRIPOS>BOND
     1    14    15    3
     2     6    15    1
     3     6     7    1
     4     7     8    1
     5     8     9    1
     6     8    10    1
     7    10    11    1
     8    11    12    1
     9    12     1    1
    10     1     2   ar
    11     2     3   ar
    12     3    16    1
    13    16    17   am
    14    16    18    2
    15     3     4   ar
    16     4    21    1
    17    21    23    1
    18    23    24   ar
    19    24    25   ar
    20    25    26   ar
    21    26    27    1
    22    26    28   ar
    23    28    29   ar
    24     4     5   ar
    25    12     6    1
    26     5     1   ar
    27    29    23   ar
    28     9    13    1
    29    17    19    1
    30    17    20    1
    31    21    22    1
