@<TRIPOS>MOLECULE
*****
 35 38 0 0 0
SMALL
GASTEIGER

@<TRIPOS>ATOM
      1 N         140.9993  142.3859  165.5570 N.am    1  UNL1       -0.1691
      2 C         139.8576  142.1491  164.6134 C.2     1  UNL1        0.3226
      3 O         138.6422  141.4035  165.0788 O.2     1  UNL1       -0.2510
      4 N         139.9314  142.6579  163.2042 N.am    1  UNL1       -0.2629
      5 C         138.7898  142.4211  162.2605 C.3     1  UNL1        0.0964
      6 C         138.8635  142.9299  160.8514 C.3     1  UNL1        0.0376
      7 C         140.0790  143.6754  160.3860 C.3     1  UNL1        0.0609
      8 C         141.2207  143.9122  161.3296 C.3     1  UNL1        0.0376
      9 C         141.1469  143.4035  162.7387 C.3     1  UNL1        0.0964
     10 H         141.7971  142.8752  165.2515 H       1  UNL1        0.1781
     11 N         140.1528  144.1843  158.9768 N.3     1  UNL1       -0.2736
     12 C         141.0726  145.3192  158.6364 C.3     1  UNL1        0.0758
     13 C         141.1465  145.8281  157.2274 C.3     1  UNL1        0.0609
     14 C         140.3005  145.2019  156.1586 C.3     1  UNL1        0.1687
     15 C         139.3808  144.0670  156.4989 C.3     1  UNL1        0.0609
     16 C         139.3069  143.5581  157.9080 C.3     1  UNL1        0.0758
     17 O         140.3744  145.7108  154.7494 O.3     1  UNL1       -0.4790
     18 C         140.1185  147.1604  154.4611 C.ar    1  UNL1        0.1393
     19 C         140.7233  147.8018  153.2474 C.ar    1  UNL1        0.0378
     20 C         140.4674  149.2514  152.9591 C.ar    1  UNL1        0.0154
     21 C         139.6068  150.0596  153.8845 C.ar    1  UNL1        0.0684
     22 CL        139.3509  151.5093  153.5962 Cl      1  UNL1       -0.0814
     23 C         139.0021  149.4182  155.0981 C.ar    1  UNL1        0.0712
     24 CL        138.1414  150.2264  156.0234 Cl      1  UNL1       -0.0813
     25 C         139.2579  147.9686  155.3864 C.ar    1  UNL1        0.0491
     26 S         140.9255  141.8771  166.9661 S.O2    1  UNL1        0.0765
     27 O         140.2915  143.1660  167.3983 O.2     1  UNL1       -0.1498
     28 O         141.5595  140.5882  166.5340 O.2     1  UNL1       -0.1498
     29 C         143.2089  142.3507  168.8535 C.3     1  UNL1        0.0324
     30 C         141.9934  141.6051  169.3190 C.ar    1  UNL1       -0.0030
     31 C         141.9196  141.0962  170.7281 C.ar    1  UNL1       -0.0029
     32 C         140.7042  140.3506  171.1935 C.ar    1  UNL1       -0.0002
     33 C         139.5625  140.1137  170.2499 C.ar    1  UNL1        0.0014
     34 C         139.6363  140.6226  168.8408 C.ar    1  UNL1        0.0199
     35 C         140.8518  141.3682  168.3753 C.ar    1  UNL1        0.1213
@<TRIPOS>BOND
     1    29    30    1
     2    30    31   ar
     3    31    32   ar
     4    32    33   ar
     5    33    34   ar
     6    34    35   ar
     7    35    26    1
     8    26    27    2
     9    26    28    2
    10    26     1    1
    11     1     2   am
    12     2     3    2
    13     2     4   am
    14     4     5    1
    15     5     6    1
    16     6     7    1
    17     7    11    1
    18    11    12    1
    19    12    13    1
    20    13    14    1
    21    14    17    1
    22    17    18    1
    23    18    19   ar
    24    19    20   ar
    25    20    21   ar
    26    21    22    1
    27    21    23   ar
    28    23    24    1
    29    23    25   ar
    30    14    15    1
    31    15    16    1
    32     7     8    1
    33     8     9    1
    34    35    30   ar
    35     9     4    1
    36    16    11    1
    37    25    18   ar
    38     1    10    1
@<TRIPOS>MOLECULE
*****
 35 38 0 0 0
SMALL
GASTEIGER

@<TRIPOS>ATOM
      1 N         141.4161  142.6779  165.5591 N.am    1  UNL1       -0.1691
      2 C         141.5974  141.8295  164.3354 C.2     1  UNL1        0.3226
      3 O         141.9574  140.3800  164.4744 O.2     1  UNL1       -0.2510
      4 N         141.4187  142.4307  162.9728 N.am    1  UNL1       -0.2629
      5 C         141.6000  141.5823  161.7491 C.3     1  UNL1        0.0964
      6 C         141.4213  142.1834  160.3865 C.3     1  UNL1        0.0376
      7 C         141.0613  143.6329  160.2476 C.3     1  UNL1        0.0609
      8 C         140.8800  144.4813  161.4713 C.3     1  UNL1        0.0376
      9 C         141.0587  143.8802  162.8339 C.3     1  UNL1        0.0964
     10 H         141.1798  143.6293  165.4679 H       1  UNL1        0.1781
     11 N         140.8826  144.2340  158.8850 N.3     1  UNL1       -0.2736
     12 C         139.7436  143.7930  158.0142 C.3     1  UNL1        0.0758
     13 C         139.5649  144.3941  156.6516 C.3     1  UNL1        0.0609
     14 C         140.5251  145.4362  156.1598 C.3     1  UNL1        0.1687
     15 C         141.6640  145.8773  157.0306 C.3     1  UNL1        0.0609
     16 C         141.8428  145.2762  158.3932 C.3     1  UNL1        0.0758
     17 O         140.3463  146.0374  154.7971 O.3     1  UNL1       -0.4790
     18 C         139.9732  147.4836  154.6585 C.ar    1  UNL1        0.1393
     19 C         140.3499  148.2399  153.4191 C.ar    1  UNL1        0.0378
     20 C         139.9768  149.6861  153.2805 C.ar    1  UNL1        0.0154
     21 C         139.2268  150.3760  154.3813 C.ar    1  UNL1        0.0684
     22 CL        138.8536  151.8222  154.2427 Cl      1  UNL1       -0.0814
     23 C         138.8500  149.6197  155.6206 C.ar    1  UNL1        0.0712
     24 CL        138.1000  150.3096  156.7214 Cl      1  UNL1       -0.0813
     25 C         139.2232  148.1735  155.7592 C.ar    1  UNL1        0.0491
     26 S         141.5948  142.0768  166.9217 S.O2    1  UNL1        0.0765
     27 O         140.1579  141.6465  166.9203 O.2     1  UNL1       -0.1498
     28 O         143.0317  142.5071  166.9231 O.2     1  UNL1       -0.1498
     29 C         140.6915  143.5811  169.3551 C.3     1  UNL1        0.0324
     30 C         141.3219  142.2279  169.5010 C.ar    1  UNL1       -0.0030
     31 C         141.5007  141.6268  170.8636 C.ar    1  UNL1       -0.0029
     32 C         142.1311  140.2735  171.0095 C.ar    1  UNL1       -0.0002
     33 C         142.5828  139.5214  169.7929 C.ar    1  UNL1        0.0014
     34 C         142.4040  140.1225  168.4303 C.ar    1  UNL1        0.0199
     35 C         141.7736  141.4757  168.2844 C.ar    1  UNL1        0.1213
@<TRIPOS>BOND
     1    29    30    1
     2    30    31   ar
     3    31    32   ar
     4    32    33   ar
     5    33    34   ar
     6    34    35   ar
     7    35    26    1
     8    26    27    2
     9    26    28    2
    10    26     1    1
    11     1     2   am
    12     2     3    2
    13     2     4   am
    14     4     5    1
    15     5     6    1
    16     6     7    1
    17     7    11    1
    18    11    12    1
    19    12    13    1
    20    13    14    1
    21    14    17    1
    22    17    18    1
    23    18    19   ar
    24    19    20   ar
    25    20    21   ar
    26    21    22    1
    27    21    23   ar
    28    23    24    1
    29    23    25   ar
    30    14    15    1
    31    15    16    1
    32     7     8    1
    33     8     9    1
    34    35    30   ar
    35     9     4    1
    36    16    11    1
    37    25    18   ar
    38     1    10    1
@<TRIPOS>MOLECULE
*****
 35 38 0 0 0
SMALL
GASTEIGER

@<TRIPOS>ATOM
      1 N         142.5162  141.3426  165.5143 N.am    1  UNL1       -0.1691
      2 C         142.2809  142.3954  164.4721 C.2     1  UNL1        0.3226
      3 O         141.5305  143.6454  164.8247 O.2     1  UNL1       -0.2510
      4 N         142.7962  142.1982  163.0772 N.am    1  UNL1       -0.2629
      5 C         142.5610  143.2511  162.0350 C.3     1  UNL1        0.0964
      6 C         143.0762  143.0539  160.6401 C.3     1  UNL1        0.0376
      7 C         143.8267  141.8040  160.2875 C.3     1  UNL1        0.0609
      8 C         144.0619  140.7512  161.3297 C.3     1  UNL1        0.0376
      9 C         143.5467  140.9483  162.7246 C.3     1  UNL1        0.0964
     10 H         143.0087  140.5222  165.2829 H       1  UNL1        0.1781
     11 N         144.3419  141.6068  158.8926 N.3     1  UNL1       -0.2736
     12 C         143.8906  140.4251  158.0864 C.3     1  UNL1        0.0758
     13 C         144.4058  140.2279  156.6916 C.3     1  UNL1        0.0609
     14 C         145.3724  141.2123  156.1029 C.3     1  UNL1        0.1687
     15 C         145.8238  142.3940  156.9092 C.3     1  UNL1        0.0609
     16 C         145.3086  142.5912  158.3040 C.3     1  UNL1        0.0758
     17 O         145.8877  141.0152  154.7080 O.3     1  UNL1       -0.4790
     18 C         147.1065  141.7580  154.2468 C.ar    1  UNL1        0.1393
     19 C         146.9750  142.8651  153.2432 C.ar    1  UNL1        0.0378
     20 C         148.1938  143.6079  152.7819 C.ar    1  UNL1        0.0154
     21 C         149.5441  143.2435  153.3242 C.ar    1  UNL1        0.0684
     22 CL        150.7629  143.9863  152.8629 Cl      1  UNL1       -0.0814
     23 C         149.6755  142.1365  154.3277 C.ar    1  UNL1        0.0712
     24 CL        151.0258  141.7722  154.8700 Cl      1  UNL1       -0.0813
     25 C         148.4567  141.3937  154.7890 C.ar    1  UNL1        0.0491
     26 S         142.0009  141.5398  166.9092 S.O2    1  UNL1        0.0765
     27 O         143.2824  142.2221  167.2861 O.2     1  UNL1       -0.1498
     28 O         140.7194  140.8574  166.5323 O.2     1  UNL1       -0.1498
     29 C         142.4833  139.4403  168.9972 C.3     1  UNL1        0.0324
     30 C         141.7268  140.6872  169.3480 C.ar    1  UNL1       -0.0030
     31 C         141.2115  140.8843  170.7429 C.ar    1  UNL1       -0.0029
     32 C         140.4550  142.1312  171.0937 C.ar    1  UNL1       -0.0002
     33 C         140.2139  143.1809  170.0497 C.ar    1  UNL1        0.0014
     34 C         140.7292  142.9837  168.6549 C.ar    1  UNL1        0.0199
     35 C         141.4856  141.7369  168.3041 C.ar    1  UNL1        0.1213
@<TRIPOS>BOND
     1    29    30    1
     2    30    31   ar
     3    31    32   ar
     4    32    33   ar
     5    33    34   ar
     6    34    35   ar
     7    35    26    1
     8    26    27    2
     9    26    28    2
    10    26     1    1
    11     1     2   am
    12     2     3    2
    13     2     4   am
    14     4     5    1
    15     5     6    1
    16     6     7    1
    17     7    11    1
    18    11    12    1
    19    12    13    1
    20    13    14    1
    21    14    17    1
    22    17    18    1
    23    18    19   ar
    24    19    20   ar
    25    20    21   ar
    26    21    22    1
    27    21    23   ar
    28    23    24    1
    29    23    25   ar
    30    14    15    1
    31    15    16    1
    32     7     8    1
    33     8     9    1
    34    35    30   ar
    35     9     4    1
    36    16    11    1
    37    25    18   ar
    38     1    10    1
@<TRIPOS>MOLECULE
*****
 35 38 0 0 0
SMALL
GASTEIGER

@<TRIPOS>ATOM
      1 N         141.3711  139.9467  165.6269 N.am    1  UNL1       -0.1691
      2 C         140.8515  140.7091  164.4442 C.2     1  UNL1        0.3226
      3 O         140.2277  142.0594  164.6376 O.2     1  UNL1       -0.2510
      4 N         140.9558  140.1211  163.0681 N.am    1  UNL1       -0.2629
      5 C         140.4362  140.8835  161.8855 C.3     1  UNL1        0.0964
      6 C         140.5404  140.2956  160.5095 C.3     1  UNL1        0.0376
      7 C         141.1642  138.9453  160.3161 C.3     1  UNL1        0.0609
      8 C         141.6839  138.1829  161.4988 C.3     1  UNL1        0.0376
      9 C         141.5796  138.7708  162.8748 C.3     1  UNL1        0.0964
     10 H         141.7806  139.0604  165.5000 H       1  UNL1        0.1781
     11 N         141.2685  138.3573  158.9400 N.3     1  UNL1       -0.2736
     12 C         142.6148  138.0367  158.3615 C.3     1  UNL1        0.0758
     13 C         142.7191  137.4487  156.9855 C.3     1  UNL1        0.0609
     14 C         141.4771  137.1815  156.1881 C.3     1  UNL1        0.1687
     15 C         140.1308  137.5021  156.7666 C.3     1  UNL1        0.0609
     16 C         140.0265  138.0901  158.1426 C.3     1  UNL1        0.0758
     17 O         141.5814  136.5935  154.8120 O.3     1  UNL1       -0.4790
     18 C         141.8672  135.1309  154.6410 C.ar    1  UNL1        0.1393
     19 C         141.8494  134.5183  153.2719 C.ar    1  UNL1        0.0378
     20 C         142.1352  133.0557  153.1010 C.ar    1  UNL1        0.0154
     21 C         142.4390  132.2058  154.2991 C.ar    1  UNL1        0.0684
     22 CL        142.7248  130.7433  154.1282 Cl      1  UNL1       -0.0814
     23 C         142.4568  132.8185  155.6681 C.ar    1  UNL1        0.0712
     24 CL        142.7605  131.9686  156.8663 Cl      1  UNL1       -0.0813
     25 C         142.1709  134.2810  155.8391 C.ar    1  UNL1        0.0491
     26 S         141.2669  140.5346  167.0029 S.O2    1  UNL1        0.0765
     27 O         139.9353  139.8689  167.1864 O.2     1  UNL1       -0.1498
     28 O         142.5985  141.2002  166.8194 O.2     1  UNL1       -0.1498
     29 C         142.4407  139.0790  169.3489 C.3     1  UNL1        0.0324
     30 C         141.7496  140.3948  169.5519 C.ar    1  UNL1       -0.0030
     31 C         141.6454  140.9827  170.9279 C.ar    1  UNL1       -0.0029
     32 C         140.9543  142.2984  171.1310 C.ar    1  UNL1       -0.0002
     33 C         140.3674  143.0262  169.9580 C.ar    1  UNL1        0.0014
     34 C         140.4716  142.4383  168.5820 C.ar    1  UNL1        0.0199
     35 C         141.1627  141.1225  168.3790 C.ar    1  UNL1        0.1213
@<TRIPOS>BOND
     1    29    30    1
     2    30    31   ar
     3    31    32   ar
     4    32    33   ar
     5    33    34   ar
     6    34    35   ar
     7    35    26    1
     8    26    27    2
     9    26    28    2
    10    26     1    1
    11     1     2   am
    12     2     3    2
    13     2     4   am
    14     4     5    1
    15     5     6    1
    16     6     7    1
    17     7    11    1
    18    11    12    1
    19    12    13    1
    20    13    14    1
    21    14    17    1
    22    17    18    1
    23    18    19   ar
    24    19    20   ar
    25    20    21   ar
    26    21    22    1
    27    21    23   ar
    28    23    24    1
    29    23    25   ar
    30    14    15    1
    31    15    16    1
    32     7     8    1
    33     8     9    1
    34    35    30   ar
    35     9     4    1
    36    16    11    1
    37    25    18   ar
    38     1    10    1
@<TRIPOS>MOLECULE
*****
 35 38 0 0 0
SMALL
GASTEIGER

@<TRIPOS>ATOM
      1 N         139.4821  140.7801  160.8292 N.am    1  UNL1       -0.1691
      2 C         140.8500  140.2401  160.5336 C.2     1  UNL1        0.3226
      3 O         142.0271  140.6947  161.3445 O.2     1  UNL1       -0.2510
      4 N         141.0407  139.2456  159.4270 N.am    1  UNL1       -0.2629
      5 C         142.4085  138.7056  159.1313 C.3     1  UNL1        0.0964
      6 C         142.5992  137.7111  158.0247 C.3     1  UNL1        0.0376
      7 C         141.4221  137.2565  157.2138 C.3     1  UNL1        0.0609
      8 C         140.0542  137.7965  157.5095 C.3     1  UNL1        0.0376
      9 C         139.8635  138.7910  158.6160 C.3     1  UNL1        0.0964
     10 H         138.7095  140.4817  160.2970 H       1  UNL1        0.1781
     11 N         141.6128  136.2620  156.1072 N.3     1  UNL1       -0.2736
     12 C         140.8149  136.3846  154.8429 C.3     1  UNL1        0.0758
     13 C         141.0055  135.3901  153.7363 C.3     1  UNL1        0.0609
     14 C         141.9940  134.2730  153.8940 C.3     1  UNL1        0.1687
     15 C         142.7919  134.1504  155.1583 C.3     1  UNL1        0.0609
     16 C         142.6013  135.1449  156.2649 C.3     1  UNL1        0.0758
     17 O         142.1847  133.2785  152.7873 O.3     1  UNL1       -0.4790
     18 C         142.1884  131.8096  153.0915 C.ar    1  UNL1        0.1393
     19 C         143.3497  130.9592  152.6692 C.ar    1  UNL1        0.0378
     20 C         143.3535  129.4904  152.9733 C.ar    1  UNL1        0.0154
     21 C         142.1959  128.8719  153.6997 C.ar    1  UNL1        0.0684
     22 CL        142.1996  127.4031  154.0039 Cl      1  UNL1       -0.0814
     23 C         141.0347  129.7223  154.1220 C.ar    1  UNL1        0.0712
     24 CL        139.8771  129.1039  154.8485 Cl      1  UNL1       -0.0813
     25 C         141.0310  131.1912  153.8179 C.ar    1  UNL1        0.0491
     26 S         139.2914  141.7746  161.9358 S.O2    1  UNL1        0.0765
     27 O         139.3288  142.8930  160.9370 O.2     1  UNL1       -0.1498
     28 O         139.2541  140.6561  162.9346 O.2     1  UNL1       -0.1498
     29 C         141.6537  143.2505  163.0498 C.3     1  UNL1        0.0324
     30 C         140.2818  143.5070  163.5994 C.ar    1  UNL1       -0.0030
     31 C         140.0911  144.5015  164.7060 C.ar    1  UNL1       -0.0029
     32 C         138.7192  144.7580  165.2557 C.ar    1  UNL1       -0.0002
     33 C         137.5380  144.0201  164.6987 C.ar    1  UNL1        0.0014
     34 C         137.7288  143.0256  163.5921 C.ar    1  UNL1        0.0199
     35 C         139.1007  142.7691  163.0425 C.ar    1  UNL1        0.1213
@<TRIPOS>BOND
     1    29    30    1
     2    30    31   ar
     3    31    32   ar
     4    32    33   ar
     5    33    34   ar
     6    34    35   ar
     7    35    26    1
     8    26    27    2
     9    26    28    2
    10    26     1    1
    11     1     2   am
    12     2     3    2
    13     2     4   am
    14     4     5    1
    15     5     6    1
    16     6     7    1
    17     7    11    1
    18    11    12    1
    19    12    13    1
    20    13    14    1
    21    14    17    1
    22    17    18    1
    23    18    19   ar
    24    19    20   ar
    25    20    21   ar
    26    21    22    1
    27    21    23   ar
    28    23    24    1
    29    23    25   ar
    30    14    15    1
    31    15    16    1
    32     7     8    1
    33     8     9    1
    34    35    30   ar
    35     9     4    1
    36    16    11    1
    37    25    18   ar
    38     1    10    1
@<TRIPOS>MOLECULE
*****
 35 38 0 0 0
SMALL
GASTEIGER

@<TRIPOS>ATOM
      1 N         145.8213  141.6106  157.0328 N.am    1  UNL1       -0.1691
      2 C         144.4107  142.0849  157.2204 C.2     1  UNL1        0.3226
      3 O         143.7370  142.8801  156.1417 O.2     1  UNL1       -0.2510
      4 N         143.6738  141.7640  158.4870 N.am    1  UNL1       -0.2629
      5 C         142.2632  142.2383  158.6747 C.3     1  UNL1        0.0964
      6 C         141.5263  141.9175  159.9411 C.3     1  UNL1        0.0376
      7 C         142.2000  141.1223  161.0199 C.3     1  UNL1        0.0609
      8 C         143.6106  140.6480  160.8322 C.3     1  UNL1        0.0376
      9 C         144.3475  140.9689  159.5658 C.3     1  UNL1        0.0964
     10 H         146.2635  141.0887  157.7408 H       1  UNL1        0.1781
     11 N         141.4631  140.8014  162.2865 N.3     1  UNL1       -0.2736
     12 C         140.3921  141.7255  162.7857 C.3     1  UNL1        0.0758
     13 C         139.6553  141.4046  164.0522 C.3     1  UNL1        0.0609
     14 C         139.9893  140.1597  164.8194 C.3     1  UNL1        0.1687
     15 C         141.0602  139.2357  164.3201 C.3     1  UNL1        0.0609
     16 C         141.7971  139.5565  163.0537 C.3     1  UNL1        0.0758
     17 O         139.2523  139.8388  166.0859 O.3     1  UNL1       -0.4790
     18 C         139.7976  140.2947  167.4069 C.ar    1  UNL1        0.1393
     19 C         139.1205  139.8823  168.6803 C.ar    1  UNL1        0.0378
     20 C         139.6657  140.3381  170.0013 C.ar    1  UNL1        0.0154
     21 C         140.8881  141.2063  170.0488 C.ar    1  UNL1        0.0684
     22 CL        141.4333  141.6621  171.3698 Cl      1  UNL1       -0.0814
     23 C         141.5651  141.6186  168.7755 C.ar    1  UNL1        0.0712
     24 CL        142.7875  142.4868  168.8230 Cl      1  UNL1       -0.0813
     25 C         141.0199  141.1628  167.4545 C.ar    1  UNL1        0.0491
     26 S         146.5582  141.9315  155.7663 S.O2    1  UNL1        0.0765
     27 O         147.0451  143.2133  156.3744 O.2     1  UNL1       -0.1498
     28 O         146.0713  140.6496  155.1582 O.2     1  UNL1       -0.1498
     29 C         149.5087  141.4222  155.5774 C.3     1  UNL1        0.0324
     30 C         148.7703  141.9977  154.4053 C.ar    1  UNL1       -0.0030
     31 C         149.5072  142.3185  153.1388 C.ar    1  UNL1       -0.0029
     32 C         148.7689  142.8939  151.9668 C.ar    1  UNL1       -0.0002
     33 C         147.2937  143.1485  152.0612 C.ar    1  UNL1        0.0014
     34 C         146.5568  142.8277  153.3277 C.ar    1  UNL1        0.0199
     35 C         147.2952  142.2523  154.4998 C.ar    1  UNL1        0.1213
@<TRIPOS>BOND
     1    29    30    1
     2    30    31   ar
     3    31    32   ar
     4    32    33   ar
     5    33    34   ar
     6    34    35   ar
     7    35    26    1
     8    26    27    2
     9    26    28    2
    10    26     1    1
    11     1     2   am
    12     2     3    2
    13     2     4   am
    14     4     5    1
    15     5     6    1
    16     6     7    1
    17     7    11    1
    18    11    12    1
    19    12    13    1
    20    13    14    1
    21    14    17    1
    22    17    18    1
    23    18    19   ar
    24    19    20   ar
    25    20    21   ar
    26    21    22    1
    27    21    23   ar
    28    23    24    1
    29    23    25   ar
    30    14    15    1
    31    15    16    1
    32     7     8    1
    33     8     9    1
    34    35    30   ar
    35     9     4    1
    36    16    11    1
    37    25    18   ar
    38     1    10    1
@<TRIPOS>MOLECULE
*****
 35 38 0 0 0
SMALL
GASTEIGER

@<TRIPOS>ATOM
      1 N         139.5039  145.0363  155.5497 N.am    1  UNL1       -0.1691
      2 C         140.1246  144.3649  154.3606 C.2     1  UNL1        0.3226
      3 O         140.5752  145.1836  153.1874 O.2     1  UNL1       -0.2510
      4 N         140.2946  142.8746  154.3448 N.am    1  UNL1       -0.2629
      5 C         140.9153  142.2031  153.1558 C.3     1  UNL1        0.0964
      6 C         141.0853  140.7129  153.1399 C.3     1  UNL1        0.0376
      7 C         140.6346  139.8941  154.3131 C.3     1  UNL1        0.0609
      8 C         140.0139  140.5656  155.5022 C.3     1  UNL1        0.0376
      9 C         139.8439  142.0558  155.5180 C.3     1  UNL1        0.0964
     10 H         139.2081  144.4989  156.3197 H       1  UNL1        0.1781
     11 N         140.8046  138.4038  154.2973 N.3     1  UNL1       -0.2736
     12 C         140.0854  137.5562  155.3044 C.3     1  UNL1        0.0758
     13 C         140.2553  136.0660  155.2887 C.3     1  UNL1        0.0609
     14 C         141.1445  135.4234  154.2658 C.3     1  UNL1        0.1687
     15 C         141.8638  136.2710  153.2587 C.3     1  UNL1        0.0609
     16 C         141.6938  137.7612  153.2745 C.3     1  UNL1        0.0758
     17 O         141.3145  133.9331  154.2500 O.3     1  UNL1       -0.4790
     18 C         142.2499  133.2746  155.2203 C.ar    1  UNL1        0.1393
     19 C         143.2956  134.0881  155.9237 C.ar    1  UNL1        0.0378
     20 C         144.2310  133.4297  156.8940 C.ar    1  UNL1        0.0154
     21 C         144.1207  131.9577  157.1609 C.ar    1  UNL1        0.0684
     22 CL        145.0561  131.2992  158.1311 Cl      1  UNL1       -0.0814
     23 C         143.0751  131.1442  156.4574 C.ar    1  UNL1        0.0712
     24 CL        142.9648  129.6722  156.7243 Cl      1  UNL1       -0.0813
     25 C         142.1397  131.8027  155.4871 C.ar    1  UNL1        0.0491
     26 S         139.3339  146.5265  155.5655 S.O2    1  UNL1        0.0765
     27 O         140.6881  146.6744  156.1933 O.2     1  UNL1       -0.1498
     28 O         137.9796  146.3787  154.9378 O.2     1  UNL1       -0.1498
     29 C         140.3052  148.1718  153.2526 C.3     1  UNL1        0.0324
     30 C         139.6494  148.8394  154.4249 C.ar    1  UNL1       -0.0030
     31 C         139.4794  150.3297  154.4408 C.ar    1  UNL1       -0.0029
     32 C         138.8236  150.9973  155.6131 C.ar    1  UNL1       -0.0002
     33 C         138.3380  150.1746  156.7696 C.ar    1  UNL1        0.0014
     34 C         138.5081  148.6844  156.7537 C.ar    1  UNL1        0.0199
     35 C         139.1638  148.0168  155.5814 C.ar    1  UNL1        0.1213
@<TRIPOS>BOND
     1    29    30    1
     2    30    31   ar
     3    31    32   ar
     4    32    33   ar
     5    33    34   ar
     6    34    35   ar
     7    35    26    1
     8    26    27    2
     9    26    28    2
    10    26     1    1
    11     1     2   am
    12     2     3    2
    13     2     4   am
    14     4     5    1
    15     5     6    1
    16     6     7    1
    17     7    11    1
    18    11    12    1
    19    12    13    1
    20    13    14    1
    21    14    17    1
    22    17    18    1
    23    18    19   ar
    24    19    20   ar
    25    20    21   ar
    26    21    22    1
    27    21    23   ar
    28    23    24    1
    29    23    25   ar
    30    14    15    1
    31    15    16    1
    32     7     8    1
    33     8     9    1
    34    35    30   ar
    35     9     4    1
    36    16    11    1
    37    25    18   ar
    38     1    10    1
@<TRIPOS>MOLECULE
*****
 35 38 0 0 0
SMALL
GASTEIGER

@<TRIPOS>ATOM
      1 N         142.2060  140.3854  165.2836 N.am    1  UNL1       -0.1691
      2 C         141.1781  140.7538  164.2551 C.2     1  UNL1        0.3226
      3 O         140.0668  141.6968  164.6097 O.2     1  UNL1       -0.2510
      4 N         141.2616  140.1792  162.8720 N.am    1  UNL1       -0.2629
      5 C         140.2337  140.5475  161.8435 C.3     1  UNL1        0.0964
      6 C         140.3172  139.9729  160.4605 C.3     1  UNL1        0.0376
      7 C         141.4285  139.0299  160.1060 C.3     1  UNL1        0.0609
      8 C         142.4563  138.6616  161.1345 C.3     1  UNL1        0.0376
      9 C         142.3729  139.2362  162.5175 C.3     1  UNL1        0.0964
     10 H         142.9354  139.7665  165.0509 H       1  UNL1        0.1781
     11 N         141.5119  138.4553  158.7229 N.3     1  UNL1       -0.2736
     12 C         140.2692  137.9739  158.0345 C.3     1  UNL1        0.0758
     13 C         140.3526  137.3992  156.6515 C.3     1  UNL1        0.0609
     14 C         141.6788  137.3060  155.9568 C.3     1  UNL1        0.1687
     15 C         142.9215  137.7874  156.6452 C.3     1  UNL1        0.0609
     16 C         142.8381  138.3620  158.0282 C.3     1  UNL1        0.0758
     17 O         141.7623  136.7313  154.5737 O.3     1  UNL1       -0.4790
     18 C         142.0296  135.2675  154.3847 C.ar    1  UNL1        0.1393
     19 C         142.9706  134.5516  155.3078 C.ar    1  UNL1        0.0378
     20 C         143.2379  133.0878  155.1187 C.ar    1  UNL1        0.0154
     21 C         142.5642  132.3398  154.0066 C.ar    1  UNL1        0.0684
     22 CL        142.8315  130.8760  153.8175 Cl      1  UNL1       -0.0814
     23 C         141.6232  133.0557  153.0836 C.ar    1  UNL1        0.0712
     24 CL        140.9494  132.3078  151.9715 Cl      1  UNL1       -0.0813
     25 C         141.3559  134.5196  153.2727 C.ar    1  UNL1        0.0491
     26 S         142.1225  140.9600  166.6666 S.O2    1  UNL1        0.0765
     27 O         141.1595  139.8786  167.0578 O.2     1  UNL1       -0.1498
     28 O         143.0856  142.0414  166.2754 O.2     1  UNL1       -0.1498
     29 C         140.1348  143.1232  167.2749 C.3     1  UNL1        0.0324
     30 C         141.0453  142.6162  168.3538 C.ar    1  UNL1       -0.0030
     31 C         140.9619  143.1909  169.7369 C.ar    1  UNL1       -0.0029
     32 C         141.8724  142.6839  170.8158 C.ar    1  UNL1       -0.0002
     33 C         142.8662  141.6024  170.5117 C.ar    1  UNL1        0.0014
     34 C         142.9496  141.0278  169.1287 C.ar    1  UNL1        0.0199
     35 C         142.0391  141.5347  168.0497 C.ar    1  UNL1        0.1213
@<TRIPOS>BOND
     1    29    30    1
     2    30    31   ar
     3    31    32   ar
     4    32    33   ar
     5    33    34   ar
     6    34    35   ar
     7    35    26    1
     8    26    27    2
     9    26    28    2
    10    26     1    1
    11     1     2   am
    12     2     3    2
    13     2     4   am
    14     4     5    1
    15     5     6    1
    16     6     7    1
    17     7    11    1
    18    11    12    1
    19    12    13    1
    20    13    14    1
    21    14    17    1
    22    17    18    1
    23    18    19   ar
    24    19    20   ar
    25    20    21   ar
    26    21    22    1
    27    21    23   ar
    28    23    24    1
    29    23    25   ar
    30    14    15    1
    31    15    16    1
    32     7     8    1
    33     8     9    1
    34    35    30   ar
    35     9     4    1
    36    16    11    1
    37    25    18   ar
    38     1    10    1
@<TRIPOS>MOLECULE
*****
 35 38 0 0 0
SMALL
GASTEIGER

@<TRIPOS>ATOM
      1 N         142.0206  141.3089  165.3320 N.am    1  UNL1       -0.1691
      2 C         141.1072  140.8158  164.2492 C.2     1  UNL1        0.3226
      3 O         139.7827  140.2079  164.6043 O.2     1  UNL1       -0.2510
      4 N         141.5183  140.9305  162.8111 N.am    1  UNL1       -0.2629
      5 C         140.6049  140.4374  161.7283 C.3     1  UNL1        0.0964
      6 C         141.0160  140.5522  160.2903 C.3     1  UNL1        0.0376
      7 C         142.3405  141.1600  159.9352 C.3     1  UNL1        0.0609
      8 C         143.2539  141.6531  161.0180 C.3     1  UNL1        0.0376
      9 C         142.8428  141.5384  162.4560 C.3     1  UNL1        0.0964
     10 H         142.8899  141.7078  165.0989 H       1  UNL1        0.1781
     11 N         142.7517  141.2748  158.4972 N.3     1  UNL1       -0.2736
     12 C         143.9116  140.4749  157.9826 C.3     1  UNL1        0.0758
     13 C         144.3227  140.5896  156.5447 C.3     1  UNL1        0.0609
     14 C         143.5740  141.5043  155.6213 C.3     1  UNL1        0.1687
     15 C         142.4141  142.3042  156.1358 C.3     1  UNL1        0.0609
     16 C         142.0029  142.1894  157.5737 C.3     1  UNL1        0.0758
     17 O         143.9851  141.6190  154.1832 O.3     1  UNL1       -0.4790
     18 C         145.3670  142.0860  153.8333 C.ar    1  UNL1        0.1393
     19 C         146.4395  141.0856  153.5186 C.ar    1  UNL1        0.0378
     20 C         147.8213  141.5525  153.1686 C.ar    1  UNL1        0.0154
     21 C         148.1306  143.0199  153.1333 C.ar    1  UNL1        0.0684
     22 CL        149.5125  143.4869  152.7834 Cl      1  UNL1       -0.0814
     23 C         147.0582  144.0203  153.4480 C.ar    1  UNL1        0.0712
     24 CL        147.3675  145.4877  153.4128 Cl      1  UNL1       -0.0813
     25 C         145.6763  143.5533  153.7980 C.ar    1  UNL1        0.0491
     26 S         141.6095  141.1941  166.7700 S.O2    1  UNL1        0.0765
     27 O         142.3266  139.8805  166.8701 O.2     1  UNL1       -0.1498
     28 O         140.8924  142.5078  166.6698 O.2     1  UNL1       -0.1498
     29 C         143.3743  142.3031  168.9277 C.3     1  UNL1        0.0324
     30 C         142.0807  141.6339  169.2868 C.ar    1  UNL1       -0.0030
     31 C         141.6696  141.5192  170.7248 C.ar    1  UNL1       -0.0029
     32 C         140.3761  140.8500  171.0839 C.ar    1  UNL1       -0.0002
     33 C         139.4937  140.2955  170.0051 C.ar    1  UNL1        0.0014
     34 C         139.9049  140.4102  168.5671 C.ar    1  UNL1        0.0199
     35 C         141.1984  141.0794  168.2080 C.ar    1  UNL1        0.1213
@<TRIPOS>BOND
     1    29    30    1
     2    30    31   ar
     3    31    32   ar
     4    32    33   ar
     5    33    34   ar
     6    34    35   ar
     7    35    26    1
     8    26    27    2
     9    26    28    2
    10    26     1    1
    11     1     2   am
    12     2     3    2
    13     2     4   am
    14     4     5    1
    15     5     6    1
    16     6     7    1
    17     7    11    1
    18    11    12    1
    19    12    13    1
    20    13    14    1
    21    14    17    1
    22    17    18    1
    23    18    19   ar
    24    19    20   ar
    25    20    21   ar
    26    21    22    1
    27    21    23   ar
    28    23    24    1
    29    23    25   ar
    30    14    15    1
    31    15    16    1
    32     7     8    1
    33     8     9    1
    34    35    30   ar
    35     9     4    1
    36    16    11    1
    37    25    18   ar
    38     1    10    1
