@<TRIPOS>MOLECULE
*****
 40 43 0 0 0
SMALL
GASTEIGER

@<TRIPOS>ATOM
      1 C         139.2981  140.0740  168.1507 C.ar    1  UNL1        0.0807
      2 C         139.7226  141.1049  167.1472 C.ar    1  UNL1        0.0194
      3 C         139.1952  141.0476  165.7442 C.ar    1  UNL1        0.0375
      4 C         138.2432  139.9594  165.3447 C.ar    1  UNL1        0.1559
      5 N         137.8187  138.9285  166.3482 N.ar    1  UNL1       -0.1331
      6 N         138.3462  138.9858  167.7512 N.ar    1  UNL1       -0.1512
      7 N         137.7157  139.9022  163.9416 N.am    1  UNL1       -0.2676
      8 C         138.3157  138.9467  162.9532 C.2     1  UNL1        0.2332
      9 O         139.4433  138.0485  163.3677 O.2     1  UNL1       -0.2743
     10 H         136.9757  140.4917  163.6695 H       1  UNL1        0.1563
     11 C         137.7882  138.8895  161.5501 C.3     1  UNL1        0.1311
     12 C         137.9941  140.0509  160.6235 C.ar    1  UNL1        0.0708
     13 C         138.3845  141.3902  161.1748 C.ar    1  UNL1        0.0521
     14 C         138.5903  142.5516  160.2482 C.ar    1  UNL1        0.1407
     15 C         138.4057  142.3739  158.7702 C.ar    1  UNL1        0.0516
     16 C         138.0153  141.0346  158.2189 C.ar    1  UNL1        0.0620
     17 C         137.8307  140.8568  156.7410 C.3     1  UNL1        0.0522
     18 N         137.8095  139.8731  159.1456 N.ar    1  UNL1       -0.2533
     19 O         138.9808  143.8909  160.7996 O.3     1  UNL1       -0.4787
     20 C         138.9045  144.1454  162.2758 C.3     1  UNL1        0.1768
     21 C         137.7953  144.4063  163.2513 C.3     1  UNL1        0.1103
     22 C         138.7967  144.5054  164.3636 C.3     1  UNL1        0.2709
     23 F         139.7980  144.6046  165.4759 F       1  UNL1       -0.2041
     24 F         137.6874  144.7662  165.3390 F       1  UNL1       -0.2041
     25 C         139.9060  144.2446  163.3881 C.3     1  UNL1        0.1103
     26 C         139.8256  140.1312  169.5538 C.3     1  UNL1        0.0505
     27 C         141.2055  140.6579  169.8153 C.3     1  UNL1        0.0437
     28 C         142.3447  140.2495  168.9290 C.3     1  UNL1        0.1856
     29 F         142.7414  138.8059  168.8347 F       1  UNL1       -0.2351
     30 C         143.0872  141.2846  168.1370 C.3     1  UNL1        0.1643
     31 C         142.8649  140.5952  164.3238 C.ar    1  UNL1        0.1762
     32 C         143.0099  140.1117  165.7363 C.ar    1  UNL1        0.1223
     33 N         142.9751  141.3074  166.6414 N.ar    1  UNL1       -0.2272
     34 N         142.8085  142.5299  165.7883 N.ar    1  UNL1       -0.0636
     35 N         142.7404  142.0898  164.3560 N.ar    1  UNL1       -0.1241
     36 C         141.6926  138.9799  160.8935 C.3     1  UNL1        0.1110
     37 N         141.7101  139.8399  162.1224 N.am    1  UNL1       -0.2978
     38 C         142.8474  139.7353  163.0949 C.2     1  UNL1        0.2670
     39 O         143.9671  138.7708  162.8384 O.2     1  UNL1       -0.2684
     40 H         140.9752  140.4729  162.2907 H       1  UNL1        0.1498
@<TRIPOS>BOND
     1    36    37    1
     2    37    38   am
     3    38    39    2
     4    38    31    1
     5    31    32   ar
     6    32    33   ar
     7    33    30    1
     8    30    28    1
     9    28    29    1
    10    28    27    1
    11    27    26    1
    12    26     1    1
    13     1     2   ar
    14     2     3   ar
    15     3     4   ar
    16     4     7    1
    17     7     8   am
    18     8     9    2
    19     8    11    1
    20    11    12    1
    21    12    13   ar
    22    13    14   ar
    23    14    19    1
    24    19    20    1
    25    20    21    1
    26    21    22    1
    27    22    23    1
    28    22    24    1
    29    22    25    1
    30    14    15   ar
    31    15    16   ar
    32    16    17    1
    33    16    18   ar
    34     4     5   ar
    35     5     6   ar
    36    33    34   ar
    37    34    35   ar
    38    35    31   ar
    39     6     1   ar
    40    18    12   ar
    41    25    20    1
    42    37    40    1
    43     7    10    1
@<TRIPOS>MOLECULE
*****
 40 43 0 0 0
SMALL
GASTEIGER

@<TRIPOS>ATOM
      1 C         139.4366  140.2842  167.9770 C.ar    1  UNL1        0.0807
      2 C         138.5155  139.1647  167.5918 C.ar    1  UNL1        0.0194
      3 C         138.0178  139.0547  166.1811 C.ar    1  UNL1        0.0375
      4 C         138.4413  140.0642  165.1555 C.ar    1  UNL1        0.1559
      5 N         139.3623  141.1836  165.5407 N.ar    1  UNL1       -0.1331
      6 N         139.8600  141.2936  166.9514 N.ar    1  UNL1       -0.1512
      7 N         137.9435  139.9541  163.7447 N.am    1  UNL1       -0.2676
      8 C         138.5667  138.9654  162.8045 C.2     1  UNL1        0.2332
      9 O         139.6876  138.0867  163.2751 O.2     1  UNL1       -0.2743
     10 H         137.2079  140.5309  163.4359 H       1  UNL1        0.1563
     11 C         138.0690  138.8554  161.3938 C.3     1  UNL1        0.1311
     12 C         138.1310  140.0446  160.4817 C.ar    1  UNL1        0.0708
     13 C         138.6063  141.3674  161.0053 C.ar    1  UNL1        0.0521
     14 C         138.6682  142.5566  160.0933 C.ar    1  UNL1        0.1407
     15 C         138.2549  142.4230  158.6575 C.ar    1  UNL1        0.0516
     16 C         137.7796  141.1001  158.1338 C.ar    1  UNL1        0.0620
     17 C         137.3663  140.9665  156.6981 C.3     1  UNL1        0.0522
     18 N         137.7177  139.9109  159.0460 N.ar    1  UNL1       -0.2533
     19 O         139.1435  143.8794  160.6169 O.3     1  UNL1       -0.4787
     20 C         139.0237  144.1944  162.0785 C.3     1  UNL1        0.1768
     21 C         139.9765  144.6345  163.1502 C.3     1  UNL1        0.1103
     22 C         138.8543  144.6397  164.1456 C.3     1  UNL1        0.2709
     23 F         137.7323  144.6449  165.1411 F       1  UNL1       -0.2041
     24 F         139.8071  145.0799  165.2173 F       1  UNL1       -0.2041
     25 C         137.9016  144.1995  163.0739 C.3     1  UNL1        0.1103
     26 C         139.9343  140.3942  169.3878 C.3     1  UNL1        0.0505
     27 C         141.2397  139.7644  169.7738 C.3     1  UNL1        0.0437
     28 C         142.4716  140.0334  168.9611 C.3     1  UNL1        0.1856
     29 F         143.3646  141.1863  169.3121 F       1  UNL1       -0.2351
     30 C         142.8102  139.1495  167.7976 C.3     1  UNL1        0.1643
     31 C         143.2059  141.3216  164.6053 C.ar    1  UNL1        0.1762
     32 C         143.1292  141.1872  166.0973 C.ar    1  UNL1        0.1223
     33 N         142.9377  139.7355  166.4227 N.ar    1  UNL1       -0.2272
     34 N         142.8961  138.9726  165.1318 N.ar    1  UNL1       -0.0636
     35 N         143.0619  139.9529  164.0086 N.ar    1  UNL1       -0.1241
     36 C         143.6527  145.1851  163.8157 C.3     1  UNL1        0.1110
     37 N         143.4650  143.9066  164.5773 N.am    1  UNL1       -0.2978
     38 C         143.3937  142.6001  163.8437 C.2     1  UNL1        0.2670
     39 O         143.5103  142.5723  162.3486 O.2     1  UNL1       -0.2684
     40 H         143.3885  143.9249  165.5587 H       1  UNL1        0.1498
@<TRIPOS>BOND
     1    36    37    1
     2    37    38   am
     3    38    39    2
     4    38    31    1
     5    31    32   ar
     6    32    33   ar
     7    33    30    1
     8    30    28    1
     9    28    29    1
    10    28    27    1
    11    27    26    1
    12    26     1    1
    13     1     2   ar
    14     2     3   ar
    15     3     4   ar
    16     4     7    1
    17     7     8   am
    18     8     9    2
    19     8    11    1
    20    11    12    1
    21    12    13   ar
    22    13    14   ar
    23    14    19    1
    24    19    20    1
    25    20    21    1
    26    21    22    1
    27    22    23    1
    28    22    24    1
    29    22    25    1
    30    14    15   ar
    31    15    16   ar
    32    16    17    1
    33    16    18   ar
    34     4     5   ar
    35     5     6   ar
    36    33    34   ar
    37    34    35   ar
    38    35    31   ar
    39     6     1   ar
    40    18    12   ar
    41    25    20    1
    42    37    40    1
    43     7    10    1
@<TRIPOS>MOLECULE
*****
 40 43 0 0 0
SMALL
GASTEIGER

@<TRIPOS>ATOM
      1 C         139.2304  142.2244  159.1805 C.ar    1  UNL1        0.0807
      2 C         140.2490  141.2885  159.7606 C.ar    1  UNL1        0.0194
      3 C         140.2204  140.9627  161.2245 C.ar    1  UNL1        0.0375
      4 C         139.1731  141.5727  162.1083 C.ar    1  UNL1        0.1559
      5 N         138.1545  142.5086  161.5282 N.ar    1  UNL1       -0.1331
      6 N         138.1831  142.8344  160.0643 N.ar    1  UNL1       -0.1512
      7 N         139.1445  141.2468  163.5722 N.am    1  UNL1       -0.2676
      8 C         138.6347  139.9139  164.0340 C.2     1  UNL1        0.2332
      9 O         138.1535  138.9068  163.0320 O.2     1  UNL1       -0.2743
     10 H         139.4603  141.9079  164.2299 H       1  UNL1        0.1563
     11 C         138.6061  139.5880  165.4980 C.3     1  UNL1        0.1311
     12 C         139.8820  139.5655  166.2864 C.ar    1  UNL1        0.0708
     13 C         141.1741  139.2106  165.6122 C.ar    1  UNL1        0.0521
     14 C         142.4499  139.1882  166.4006 C.ar    1  UNL1        0.1407
     15 C         142.4337  139.5206  167.8633 C.ar    1  UNL1        0.0516
     16 C         141.1416  139.8755  168.5375 C.ar    1  UNL1        0.0620
     17 C         141.1254  140.2079  170.0000 C.3     1  UNL1        0.0522
     18 N         139.8657  139.8979  167.7490 N.ar    1  UNL1       -0.2533
     19 O         143.7420  138.8333  165.7265 O.3     1  UNL1       -0.4787
     20 C         144.1646  139.5607  164.4846 C.3     1  UNL1        0.1768
     21 C         145.0302  140.7511  164.1953 C.3     1  UNL1        0.1103
     22 C         144.7621  140.5895  162.7283 C.3     1  UNL1        0.2709
     23 F         144.4941  140.4280  161.2614 F       1  UNL1       -0.2041
     24 F         145.6278  141.7799  162.4390 F       1  UNL1       -0.2041
     25 C         143.8965  139.3991  163.0176 C.3     1  UNL1        0.1103
     26 C         139.2590  142.5503  157.7166 C.3     1  UNL1        0.0505
     27 C         140.3679  143.3911  157.1569 C.3     1  UNL1        0.0437
     28 C         140.3923  144.8686  157.4149 C.3     1  UNL1        0.1856
     29 F         139.3553  145.7558  156.7926 F       1  UNL1       -0.2351
     30 C         141.4538  145.4587  158.2953 C.3     1  UNL1        0.1643
     31 C         141.3236  144.5024  162.0548 C.ar    1  UNL1        0.1762
     32 C         140.7583  145.2202  160.8652 C.ar    1  UNL1        0.1223
     33 N         141.6462  144.9394  159.6892 N.ar    1  UNL1       -0.2272
     34 N         142.7603  144.0480  160.1521 N.ar    1  UNL1       -0.0636
     35 N         142.5609  143.7780  161.6140 N.ar    1  UNL1       -0.1241
     36 C         138.7323  144.8420  165.0414 C.3     1  UNL1        0.1110
     37 N         139.3039  144.8364  163.6546 N.am    1  UNL1       -0.2978
     38 C         140.7520  144.5081  163.4415 C.2     1  UNL1        0.2670
     39 O         141.6283  144.1854  164.6153 O.2     1  UNL1       -0.2684
     40 H         138.7287  145.0482  162.8842 H       1  UNL1        0.1498
@<TRIPOS>BOND
     1    36    37    1
     2    37    38   am
     3    38    39    2
     4    38    31    1
     5    31    32   ar
     6    32    33   ar
     7    33    30    1
     8    30    28    1
     9    28    29    1
    10    28    27    1
    11    27    26    1
    12    26     1    1
    13     1     2   ar
    14     2     3   ar
    15     3     4   ar
    16     4     7    1
    17     7     8   am
    18     8     9    2
    19     8    11    1
    20    11    12    1
    21    12    13   ar
    22    13    14   ar
    23    14    19    1
    24    19    20    1
    25    20    21    1
    26    21    22    1
    27    22    23    1
    28    22    24    1
    29    22    25    1
    30    14    15   ar
    31    15    16   ar
    32    16    17    1
    33    16    18   ar
    34     4     5   ar
    35     5     6   ar
    36    33    34   ar
    37    34    35   ar
    38    35    31   ar
    39     6     1   ar
    40    18    12   ar
    41    25    20    1
    42    37    40    1
    43     7    10    1
@<TRIPOS>MOLECULE
*****
 40 43 0 0 0
SMALL
GASTEIGER

@<TRIPOS>ATOM
      1 C         142.4993  141.4550  159.7990 C.ar    1  UNL1        0.0807
      2 C         141.3413  141.1831  160.7128 C.ar    1  UNL1        0.0194
      3 C         141.5696  141.0298  162.1874 C.ar    1  UNL1        0.0375
      4 C         142.9558  141.1484  162.7481 C.ar    1  UNL1        0.1559
      5 N         144.1137  141.4203  161.8342 N.ar    1  UNL1       -0.1331
      6 N         143.8855  141.5736  160.3597 N.ar    1  UNL1       -0.1512
      7 N         143.1840  140.9951  164.2227 N.am    1  UNL1       -0.2676
      8 C         142.8211  142.1105  165.1577 C.2     1  UNL1        0.2332
      9 O         142.2301  143.3792  164.6182 O.2     1  UNL1       -0.2743
     10 H         143.5719  140.1625  164.5769 H       1  UNL1        0.1563
     11 C         143.0493  141.9572  166.6324 C.3     1  UNL1        0.1311
     12 C         141.9311  141.4984  167.5207 C.ar    1  UNL1        0.0708
     13 C         140.8572  140.6052  166.9739 C.ar    1  UNL1        0.0521
     14 C         139.7390  140.1464  167.8622 C.ar    1  UNL1        0.1407
     15 C         139.6946  140.5809  169.2973 C.ar    1  UNL1        0.0516
     16 C         140.7685  141.4741  169.8440 C.ar    1  UNL1        0.0620
     17 C         140.7242  141.9086  171.2790 C.3     1  UNL1        0.0522
     18 N         141.8868  141.9329  168.9556 N.ar    1  UNL1       -0.2533
     19 O         138.6651  139.2532  167.3155 O.3     1  UNL1       -0.4787
     20 C         138.6380  138.9215  165.8529 C.3     1  UNL1        0.1768
     21 C         138.9632  137.7073  165.0344 C.3     1  UNL1        0.1103
     22 C         138.5996  138.4525  163.7844 C.3     1  UNL1        0.2709
     23 F         138.2361  139.1976  162.5344 F       1  UNL1       -0.2041
     24 F         138.9249  137.2382  162.9660 F       1  UNL1       -0.2041
     25 C         138.2744  139.6667  164.6029 C.3     1  UNL1        0.1103
     26 C         142.2711  141.6083  158.3243 C.3     1  UNL1        0.0505
     27 C         141.3774  142.6990  157.8131 C.3     1  UNL1        0.0437
     28 C         141.9476  144.0504  157.4989 C.3     1  UNL1        0.1856
     29 F         142.8768  144.2199  156.3336 F       1  UNL1       -0.2351
     30 C         141.5887  145.2323  158.3500 C.3     1  UNL1        0.1643
     31 C         140.2515  144.8829  161.9770 C.ar    1  UNL1        0.1762
     32 C         140.0228  145.1181  160.5133 C.ar    1  UNL1        0.1223
     33 N         141.3515  145.0533  159.8202 N.ar    1  UNL1       -0.2272
     34 N         142.4014  144.7780  160.8556 N.ar    1  UNL1       -0.0636
     35 N         141.7216  144.6727  162.1885 N.ar    1  UNL1       -0.1241
     36 C         138.5231  145.0134  165.5471 C.3     1  UNL1        0.1110
     37 N         139.5791  145.0347  164.4820 N.am    1  UNL1       -0.2978
     38 C         139.1956  144.8616  163.0421 C.2     1  UNL1        0.2670
     39 O         137.7562  144.6673  162.6676 O.2     1  UNL1       -0.2684
     40 H         140.5238  145.1623  164.7278 H       1  UNL1        0.1498
@<TRIPOS>BOND
     1    36    37    1
     2    37    38   am
     3    38    39    2
     4    38    31    1
     5    31    32   ar
     6    32    33   ar
     7    33    30    1
     8    30    28    1
     9    28    29    1
    10    28    27    1
    11    27    26    1
    12    26     1    1
    13     1     2   ar
    14     2     3   ar
    15     3     4   ar
    16     4     7    1
    17     7     8   am
    18     8     9    2
    19     8    11    1
    20    11    12    1
    21    12    13   ar
    22    13    14   ar
    23    14    19    1
    24    19    20    1
    25    20    21    1
    26    21    22    1
    27    22    23    1
    28    22    24    1
    29    22    25    1
    30    14    15   ar
    31    15    16   ar
    32    16    17    1
    33    16    18   ar
    34     4     5   ar
    35     5     6   ar
    36    33    34   ar
    37    34    35   ar
    38    35    31   ar
    39     6     1   ar
    40    18    12   ar
    41    25    20    1
    42    37    40    1
    43     7    10    1
@<TRIPOS>MOLECULE
*****
 40 43 0 0 0
SMALL
GASTEIGER

@<TRIPOS>ATOM
      1 C         141.0566  145.0482  158.4628 C.ar    1  UNL1        0.0807
      2 C         139.9925  144.0163  158.2331 C.ar    1  UNL1        0.0194
      3 C         139.4251  143.2532  159.3931 C.ar    1  UNL1        0.0375
      4 C         139.9218  143.5219  160.7828 C.ar    1  UNL1        0.1559
      5 N         140.9859  144.5538  161.0124 N.ar    1  UNL1       -0.1331
      6 N         141.5533  145.3170  159.8524 N.ar    1  UNL1       -0.1512
      7 N         139.3543  142.7587  161.9428 N.am    1  UNL1       -0.2676
      8 C         138.2819  143.3735  162.7924 C.2     1  UNL1        0.2332
      9 O         137.7768  144.7514  162.4821 O.2     1  UNL1       -0.2743
     10 H         139.6858  141.8544  162.1465 H       1  UNL1        0.1563
     11 C         137.7144  142.6103  163.9524 C.3     1  UNL1        0.1311
     12 C         138.4016  141.3704  164.4427 C.ar    1  UNL1        0.0708
     13 C         139.1276  141.3845  165.7552 C.ar    1  UNL1        0.0521
     14 C         139.8148  140.1446  166.2455 C.ar    1  UNL1        0.1407
     15 C         139.7760  138.8906  165.4233 C.ar    1  UNL1        0.0516
     16 C         139.0500  138.8765  164.1108 C.ar    1  UNL1        0.0620
     17 C         139.0112  137.6226  163.2886 C.3     1  UNL1        0.0522
     18 N         138.3628  140.1165  163.6205 N.ar    1  UNL1       -0.2533
     19 O         140.5408  140.1587  167.5581 O.3     1  UNL1       -0.4787
     20 C         140.3738  141.3180  168.4951 C.3     1  UNL1        0.1768
     21 C         140.8775  142.7303  168.5355 C.3     1  UNL1        0.1103
     22 C         140.1376  142.9575  169.8204 C.3     1  UNL1        0.2709
     23 F         139.3979  143.1848  171.1052 F       1  UNL1       -0.2041
     24 F         140.6414  144.3698  169.8606 F       1  UNL1       -0.2041
     25 C         139.6340  141.5452  169.7800 C.3     1  UNL1        0.1103
     26 C         141.6241  145.8114  157.3028 C.3     1  UNL1        0.0505
     27 C         140.7649  146.1126  156.1108 C.3     1  UNL1        0.0437
     28 C         139.7116  147.1773  156.1953 C.3     1  UNL1        0.1856
     29 F         139.1088  147.5323  157.5222 F       1  UNL1       -0.2351
     30 C         139.2610  147.8869  154.9530 C.3     1  UNL1        0.1643
     31 C         139.6032  151.7222  154.4649 C.ar    1  UNL1        0.1762
     32 C         140.0681  150.3211  154.1992 C.ar    1  UNL1        0.1223
     33 N         139.1604  149.3834  154.9387 N.ar    1  UNL1       -0.2272
     34 N         138.1345  150.2050  155.6615 N.ar    1  UNL1       -0.0636
     35 N         138.4081  151.6505  155.3687 N.ar    1  UNL1       -0.1241
     36 C         139.9853  155.2692  152.7263 C.3     1  UNL1        0.1110
     37 N         139.3643  154.0163  153.2690 N.am    1  UNL1       -0.2978
     38 C         140.2242  152.9751  153.9222 C.2     1  UNL1        0.2670
     39 O         141.7050  153.1869  154.0327 O.2     1  UNL1       -0.2684
     40 H         138.3924  153.8773  153.1965 H       1  UNL1        0.1498
@<TRIPOS>BOND
     1    36    37    1
     2    37    38   am
     3    38    39    2
     4    38    31    1
     5    31    32   ar
     6    32    33   ar
     7    33    30    1
     8    30    28    1
     9    28    29    1
    10    28    27    1
    11    27    26    1
    12    26     1    1
    13     1     2   ar
    14     2     3   ar
    15     3     4   ar
    16     4     7    1
    17     7     8   am
    18     8     9    2
    19     8    11    1
    20    11    12    1
    21    12    13   ar
    22    13    14   ar
    23    14    19    1
    24    19    20    1
    25    20    21    1
    26    21    22    1
    27    22    23    1
    28    22    24    1
    29    22    25    1
    30    14    15   ar
    31    15    16   ar
    32    16    17    1
    33    16    18   ar
    34     4     5   ar
    35     5     6   ar
    36    33    34   ar
    37    34    35   ar
    38    35    31   ar
    39     6     1   ar
    40    18    12   ar
    41    25    20    1
    42    37    40    1
    43     7    10    1
@<TRIPOS>MOLECULE
*****
 40 43 0 0 0
SMALL
GASTEIGER

@<TRIPOS>ATOM
      1 C         139.4804  142.3349  158.0281 C.ar    1  UNL1        0.0807
      2 C         140.6023  141.5039  158.5766 C.ar    1  UNL1        0.0194
      3 C         140.6135  141.1230  160.0273 C.ar    1  UNL1        0.0375
      4 C         139.5029  141.5730  160.9296 C.ar    1  UNL1        0.1559
      5 N         138.3810  142.4039  160.3811 N.ar    1  UNL1       -0.1331
      6 N         138.3698  142.7849  158.9303 N.ar    1  UNL1       -0.1512
      7 N         139.5142  141.1919  162.3804 N.am    1  UNL1       -0.2676
      8 C         138.5937  140.1187  162.8811 C.2     1  UNL1        0.2332
      9 O         137.6619  139.4264  161.9311 O.2     1  UNL1       -0.2743
     10 H         140.1257  141.6463  163.0039 H       1  UNL1        0.1563
     11 C         138.6049  139.7377  164.3319 C.3     1  UNL1        0.1311
     12 C         139.8979  139.7177  165.0921 C.ar    1  UNL1        0.0708
     13 C         139.8973  139.9208  166.5783 C.ar    1  UNL1        0.0521
     14 C         141.1902  139.9008  167.3384 C.ar    1  UNL1        0.1407
     15 C         142.4838  139.6778  166.6124 C.ar    1  UNL1        0.0516
     16 C         142.4843  139.4747  165.1262 C.ar    1  UNL1        0.0620
     17 C         143.7778  139.2516  164.4002 C.3     1  UNL1        0.0522
     18 N         141.1913  139.4946  164.3661 N.ar    1  UNL1       -0.2533
     19 O         141.1897  140.1039  168.8246 O.3     1  UNL1       -0.4787
     20 C         140.7414  141.4135  169.4025 C.3     1  UNL1        0.1768
     21 C         141.1417  142.8472  169.2171 C.3     1  UNL1        0.1103
     22 C         140.1074  143.2656  170.2197 C.3     1  UNL1        0.2709
     23 F         139.0732  143.6841  171.2222 F       1  UNL1       -0.2041
     24 F         140.5078  144.6993  170.0343 F       1  UNL1       -0.2041
     25 C         139.7071  141.8319  170.4050 C.3     1  UNL1        0.1103
     26 C         139.4692  142.7159  156.5773 C.3     1  UNL1        0.0505
     27 C         140.6945  143.3100  155.9483 C.3     1  UNL1        0.0437
     28 C         140.7373  144.7744  155.6262 C.3     1  UNL1        0.1856
     29 F         140.2138  145.2684  154.3102 F       1  UNL1       -0.2351
     30 C         141.3036  145.7447  156.6200 C.3     1  UNL1        0.1643
     31 C         140.8849  145.1051  160.4254 C.ar    1  UNL1        0.1762
     32 C         140.3832  145.6673  159.1284 C.ar    1  UNL1        0.1223
     33 N         141.4000  145.3648  158.0679 N.ar    1  UNL1       -0.2272
     34 N         142.5302  144.6158  158.7095 N.ar    1  UNL1       -0.0636
     35 N         142.2119  144.4553  160.1665 N.ar    1  UNL1       -0.1241
     36 C         140.1014  144.6291  164.2867 C.3     1  UNL1        0.1110
     37 N         140.8033  144.5545  162.9632 N.am    1  UNL1       -0.2978
     38 C         140.1830  145.1798  161.7489 C.2     1  UNL1        0.2670
     39 O         138.8608  145.8796  161.8583 O.2     1  UNL1       -0.2684
     40 H         141.6711  144.0952  162.8914 H       1  UNL1        0.1498
@<TRIPOS>BOND
     1    36    37    1
     2    37    38   am
     3    38    39    2
     4    38    31    1
     5    31    32   ar
     6    32    33   ar
     7    33    30    1
     8    30    28    1
     9    28    29    1
    10    28    27    1
    11    27    26    1
    12    26     1    1
    13     1     2   ar
    14     2     3   ar
    15     3     4   ar
    16     4     7    1
    17     7     8   am
    18     8     9    2
    19     8    11    1
    20    11    12    1
    21    12    13   ar
    22    13    14   ar
    23    14    19    1
    24    19    20    1
    25    20    21    1
    26    21    22    1
    27    22    23    1
    28    22    24    1
    29    22    25    1
    30    14    15   ar
    31    15    16   ar
    32    16    17    1
    33    16    18   ar
    34     4     5   ar
    35     5     6   ar
    36    33    34   ar
    37    34    35   ar
    38    35    31   ar
    39     6     1   ar
    40    18    12   ar
    41    25    20    1
    42    37    40    1
    43     7    10    1
@<TRIPOS>MOLECULE
*****
 40 43 0 0 0
SMALL
GASTEIGER

@<TRIPOS>ATOM
      1 C         142.8039  142.7484  157.6725 C.ar    1  UNL1        0.0807
      2 C         141.8280  141.6902  158.0943 C.ar    1  UNL1        0.0194
      3 C         141.9536  141.0496  159.4448 C.ar    1  UNL1        0.0375
      4 C         143.0551  141.4671  160.3734 C.ar    1  UNL1        0.1559
      5 N         144.0310  142.5252  159.9516 N.ar    1  UNL1       -0.1331
      6 N         143.9054  143.1658  158.6012 N.ar    1  UNL1       -0.1512
      7 N         143.1807  140.8264  161.7239 N.am    1  UNL1       -0.2676
      8 C         143.8751  139.5044  161.8652 C.2     1  UNL1        0.2332
      9 O         144.4439  138.8229  160.6560 O.2     1  UNL1       -0.2743
     10 H         142.8073  141.2736  162.5176 H       1  UNL1        0.1563
     11 C         144.0007  138.8637  163.2157 C.3     1  UNL1        0.1311
     12 C         142.9524  139.1055  164.2610 C.ar    1  UNL1        0.0708
     13 C         143.3488  139.2581  165.6995 C.ar    1  UNL1        0.0521
     14 C         142.3005  139.5000  166.7448 C.ar    1  UNL1        0.1407
     15 C         140.8557  139.5891  166.3515 C.ar    1  UNL1        0.0516
     16 C         140.4593  139.4364  164.9129 C.ar    1  UNL1        0.0620
     17 C         139.0145  139.5256  164.5195 C.3     1  UNL1        0.0522
     18 N         141.5076  139.1946  163.8676 N.ar    1  UNL1       -0.2533
     19 O         142.6970  139.6526  168.1834 O.3     1  UNL1       -0.4787
     20 C         142.5600  140.9833  168.8619 C.3     1  UNL1        0.1768
     21 C         143.4148  141.7930  169.7913 C.3     1  UNL1        0.1103
     22 C         142.3663  142.8653  169.8215 C.3     1  UNL1        0.2709
     23 F         141.3179  143.9375  169.8518 F       1  UNL1       -0.2041
     24 F         143.2211  143.6749  170.7509 F       1  UNL1       -0.2041
     25 C         141.5115  142.0556  168.8921 C.3     1  UNL1        0.1103
     26 C         142.6783  143.3891  156.3220 C.3     1  UNL1        0.0505
     27 C         142.2119  144.8100  156.2064 C.3     1  UNL1        0.0437
     28 C         140.7477  145.1110  156.0812 C.3     1  UNL1        0.1856
     29 F         140.0393  144.8621  154.7827 F       1  UNL1       -0.2351
     30 C         139.9920  145.6609  157.2544 C.3     1  UNL1        0.1643
     31 C         140.8948  144.4737  160.8379 C.ar    1  UNL1        0.1762
     32 C         141.1234  145.3725  159.6590 C.ar    1  UNL1        0.1223
     33 N         140.1227  145.0131  158.6010 N.ar    1  UNL1       -0.2272
     34 N         139.2755  143.8921  159.1260 N.ar    1  UNL1       -0.0636
     35 N         139.7527  143.5587  160.5084 N.ar    1  UNL1       -0.1241
     36 C         143.9196  144.7949  163.3868 C.3     1  UNL1        0.1110
     37 N         143.1426  144.7812  162.1038 N.am    1  UNL1       -0.2978
     38 C         141.6718  144.4874  162.1209 C.2     1  UNL1        0.2670
     39 O         140.9779  144.2074  163.4209 O.2     1  UNL1       -0.2684
     40 H         143.5980  144.9650  161.2506 H       1  UNL1        0.1498
@<TRIPOS>BOND
     1    36    37    1
     2    37    38   am
     3    38    39    2
     4    38    31    1
     5    31    32   ar
     6    32    33   ar
     7    33    30    1
     8    30    28    1
     9    28    29    1
    10    28    27    1
    11    27    26    1
    12    26     1    1
    13     1     2   ar
    14     2     3   ar
    15     3     4   ar
    16     4     7    1
    17     7     8   am
    18     8     9    2
    19     8    11    1
    20    11    12    1
    21    12    13   ar
    22    13    14   ar
    23    14    19    1
    24    19    20    1
    25    20    21    1
    26    21    22    1
    27    22    23    1
    28    22    24    1
    29    22    25    1
    30    14    15   ar
    31    15    16   ar
    32    16    17    1
    33    16    18   ar
    34     4     5   ar
    35     5     6   ar
    36    33    34   ar
    37    34    35   ar
    38    35    31   ar
    39     6     1   ar
    40    18    12   ar
    41    25    20    1
    42    37    40    1
    43     7    10    1
@<TRIPOS>MOLECULE
*****
 40 43 0 0 0
SMALL
GASTEIGER

@<TRIPOS>ATOM
      1 C         140.4271  145.3130  159.8811 C.ar    1  UNL1        0.0807
      2 C         141.4461  144.4018  160.4985 C.ar    1  UNL1        0.0194
      3 C         141.5111  144.2503  161.9894 C.ar    1  UNL1        0.0375
      4 C         140.5571  145.0099  162.8628 C.ar    1  UNL1        0.1559
      5 N         139.5381  145.9210  162.2454 N.ar    1  UNL1       -0.1331
      6 N         139.4730  146.0726  160.7545 N.ar    1  UNL1       -0.1512
      7 N         140.6222  144.8582  164.3538 N.am    1  UNL1       -0.2676
      8 C         139.6880  143.9160  165.0533 C.2     1  UNL1        0.2332
      9 O         138.6888  143.1252  164.2620 O.2     1  UNL1       -0.2743
     10 H         141.2780  145.3772  164.8732 H       1  UNL1        0.1563
     11 C         139.7531  143.7644  166.5443 C.3     1  UNL1        0.1311
     12 C         140.5591  142.6542  167.1508 C.ar    1  UNL1        0.0708
     13 C         141.4278  141.7957  166.2799 C.ar    1  UNL1        0.0521
     14 C         142.2337  140.6856  166.8864 C.ar    1  UNL1        0.1407
     15 C         142.1711  140.4338  168.3639 C.ar    1  UNL1        0.0516
     16 C         141.3024  141.2923  169.2347 C.ar    1  UNL1        0.0620
     17 C         141.2397  141.0406  170.7121 C.3     1  UNL1        0.0522
     18 N         140.4964  142.4025  168.6281 N.ar    1  UNL1       -0.2533
     19 O         143.1024  139.8271  166.0155 O.3     1  UNL1       -0.4787
     20 C         142.4994  139.0665  164.8720 C.3     1  UNL1        0.1768
     21 C         142.3934  139.2844  163.3917 C.3     1  UNL1        0.1103
     22 C         141.6465  137.9908  163.2547 C.3     1  UNL1        0.2709
     23 F         140.8997  136.6973  163.1176 F       1  UNL1       -0.2041
     24 F         141.5406  138.2088  161.7744 F       1  UNL1       -0.2041
     25 C         141.7525  137.7729  164.7350 C.3     1  UNL1        0.1103
     26 C         140.3620  145.4646  158.3901 C.3     1  UNL1        0.0505
     27 C         140.5581  144.2693  157.5054 C.3     1  UNL1        0.0437
     28 C         139.4008  143.3658  157.1979 C.3     1  UNL1        0.1856
     29 F         138.2913  143.8445  156.3092 F       1  UNL1       -0.2351
     30 C         139.3531  141.9838  157.7789 C.3     1  UNL1        0.1643
     31 C         138.4297  140.7732  161.3492 C.ar    1  UNL1        0.1762
     32 C         139.0759  140.5455  160.0149 C.ar    1  UNL1        0.1223
     33 N         138.8702  141.7773  159.1839 N.ar    1  UNL1       -0.2272
     34 N         138.0969  142.7663  160.0048 N.ar    1  UNL1       -0.0636
     35 N         137.8246  142.1457  161.3429 N.ar    1  UNL1       -0.1241
     36 C         138.4959  139.3172  165.0405 C.3     1  UNL1        0.1110
     37 N         138.5310  140.2910  163.9001 N.am    1  UNL1       -0.2978
     38 C         138.3946  139.7993  162.4895 C.2     1  UNL1        0.2670
     39 O         138.2233  138.3339  162.2194 O.2     1  UNL1       -0.2684
     40 H         138.6434  141.2528  164.0775 H       1  UNL1        0.1498
@<TRIPOS>BOND
     1    36    37    1
     2    37    38   am
     3    38    39    2
     4    38    31    1
     5    31    32   ar
     6    32    33   ar
     7    33    30    1
     8    30    28    1
     9    28    29    1
    10    28    27    1
    11    27    26    1
    12    26     1    1
    13     1     2   ar
    14     2     3   ar
    15     3     4   ar
    16     4     7    1
    17     7     8   am
    18     8     9    2
    19     8    11    1
    20    11    12    1
    21    12    13   ar
    22    13    14   ar
    23    14    19    1
    24    19    20    1
    25    20    21    1
    26    21    22    1
    27    22    23    1
    28    22    24    1
    29    22    25    1
    30    14    15   ar
    31    15    16   ar
    32    16    17    1
    33    16    18   ar
    34     4     5   ar
    35     5     6   ar
    36    33    34   ar
    37    34    35   ar
    38    35    31   ar
    39     6     1   ar
    40    18    12   ar
    41    25    20    1
    42    37    40    1
    43     7    10    1
@<TRIPOS>MOLECULE
*****
 40 43 0 0 0
SMALL
GASTEIGER

@<TRIPOS>ATOM
      1 C         138.6909  142.5369  157.6354 C.ar    1  UNL1        0.0807
      2 C         139.6326  141.4485  157.2130 C.ar    1  UNL1        0.0194
      3 C         140.3249  140.6123  158.2481 C.ar    1  UNL1        0.0375
      4 C         140.0754  140.8645  159.7056 C.ar    1  UNL1        0.1559
      5 N         139.1336  141.9529  160.1279 N.ar    1  UNL1       -0.1331
      6 N         138.4414  142.7891  159.0928 N.ar    1  UNL1       -0.1512
      7 N         140.7677  140.0282  160.7407 N.am    1  UNL1       -0.2676
      8 C         140.1800  138.7126  161.1578 C.2     1  UNL1        0.2332
      9 O         138.9000  138.2333  160.5398 O.2     1  UNL1       -0.2743
     10 H         141.6078  140.3427  161.1463 H       1  UNL1        0.1563
     11 C         140.8723  137.8763  162.1929 C.3     1  UNL1        0.1311
     12 C         141.1134  138.4301  163.5659 C.ar    1  UNL1        0.0708
     13 C         140.1426  139.4058  164.1621 C.ar    1  UNL1        0.0521
     14 C         140.3836  139.9596  165.5352 C.ar    1  UNL1        0.1407
     15 C         141.5954  139.5375  166.3120 C.ar    1  UNL1        0.0516
     16 C         142.5662  138.5617  165.7158 C.ar    1  UNL1        0.0620
     17 C         143.7780  138.1397  166.4926 C.3     1  UNL1        0.0522
     18 N         142.3251  138.0080  164.3427 N.ar    1  UNL1       -0.2533
     19 O         139.4129  140.9353  166.1314 O.3     1  UNL1       -0.4787
     20 C         139.0489  142.1834  165.3832 C.3     1  UNL1        0.1768
     21 C         137.9209  142.5884  164.4812 C.3     1  UNL1        0.1103
     22 C         138.5342  143.9484  164.3250 C.3     1  UNL1        0.2709
     23 F         139.1473  145.3084  164.1688 F       1  UNL1       -0.2041
     24 F         137.4061  144.3534  163.4230 F       1  UNL1       -0.2041
     25 C         139.6622  143.5433  165.2270 C.3     1  UNL1        0.1103
     26 C         137.9986  143.3732  156.6003 C.3     1  UNL1        0.0505
     27 C         138.8001  144.2579  155.6921 C.3     1  UNL1        0.0437
     28 C         140.0806  144.8690  156.1788 C.3     1  UNL1        0.1856
     29 F         141.3942  144.3904  155.6352 F       1  UNL1       -0.2351
     30 C         140.0476  145.9587  157.2091 C.3     1  UNL1        0.1643
     31 C         141.4202  144.7644  160.6377 C.ar    1  UNL1        0.1762
     32 C         141.5025  144.8201  159.1410 C.ar    1  UNL1        0.1223
     33 N         140.3516  145.6437  158.6438 N.ar    1  UNL1       -0.2272
     34 N         139.5580  146.0970  159.8332 N.ar    1  UNL1       -0.0636
     35 N         140.2184  145.5536  161.0655 N.ar    1  UNL1       -0.1241
     36 C         144.2780  144.1075  163.3119 C.3     1  UNL1        0.1110
     37 N         143.3257  144.8262  162.4027 N.am    1  UNL1       -0.2978
     38 C         142.3725  144.0458  161.5469 C.2     1  UNL1        0.2670
     39 O         142.3716  142.5468  161.6004 O.2     1  UNL1       -0.2684
     40 H         143.3263  145.8100  162.3676 H       1  UNL1        0.1498
@<TRIPOS>BOND
     1    36    37    1
     2    37    38   am
     3    38    39    2
     4    38    31    1
     5    31    32   ar
     6    32    33   ar
     7    33    30    1
     8    30    28    1
     9    28    29    1
    10    28    27    1
    11    27    26    1
    12    26     1    1
    13     1     2   ar
    14     2     3   ar
    15     3     4   ar
    16     4     7    1
    17     7     8   am
    18     8     9    2
    19     8    11    1
    20    11    12    1
    21    12    13   ar
    22    13    14   ar
    23    14    19    1
    24    19    20    1
    25    20    21    1
    26    21    22    1
    27    22    23    1
    28    22    24    1
    29    22    25    1
    30    14    15   ar
    31    15    16   ar
    32    16    17    1
    33    16    18   ar
    34     4     5   ar
    35     5     6   ar
    36    33    34   ar
    37    34    35   ar
    38    35    31   ar
    39     6     1   ar
    40    18    12   ar
    41    25    20    1
    42    37    40    1
    43     7    10    1
