@<TRIPOS>MOLECULE
*****
 29 33 0 0 0
SMALL
GASTEIGER

@<TRIPOS>ATOM
      1 C         143.0546  139.4973  162.8316 C.3     1  UNL1        0.1122
      2 C         143.7536  140.4052  161.8636 C.3     1  UNL1        0.0160
      3 C         143.8107  140.0481  160.4079 C.3     1  UNL1        0.0425
      4 C         143.1689  138.7830  159.9202 C.3     1  UNL1        0.1561
      5 C         142.4699  137.8752  160.8883 C.3     1  UNL1        0.0425
      6 C         142.4128  138.2323  162.3440 C.3     1  UNL1        0.0160
      7 C         142.5762  137.5582  159.2889 C.3     1  UNL1        0.1414
      8 N         142.8698  137.6062  157.8187 N.am    1  UNL1       -0.2215
      9 C         143.6439  138.8608  157.5413 C.2     1  UNL1        0.4086
     10 O         144.1451  139.3092  156.2006 O.2     1  UNL1       -0.2258
     11 O         143.8287  139.5881  158.8401 O.3     1  UNL1       -0.4398
     12 C         142.9178  141.7444  168.8761 C.2     1  UNL1        0.0547
     13 C         142.7033  140.3007  169.2219 C.2     1  UNL1        0.0103
     14 C         142.6455  139.2695  168.1341 C.2     1  UNL1        0.0505
     15 C         142.8022  139.6821  166.7005 C.2     1  UNL1        0.2318
     16 N         142.7903  138.8963  165.4228 N.2     1  UNL1       -0.0351
     17 C         142.9975  139.8544  164.2875 C.2     1  UNL1        0.3506
     18 N         143.1375  141.2324  164.8634 N.2     1  UNL1       -0.0389
     19 C         143.0168  141.1259  166.3547 C.2     1  UNL1        0.2181
     20 C         143.0746  142.1570  167.4426 C.3     1  UNL1        0.1144
     21 N         143.0334  143.8067  171.0519 N.1     1  UNL1       -0.1911
     22 C         142.9756  142.7756  169.9640 C.1     1  UNL1        0.0965
     23 C         142.4610  136.5799  156.8040 C.ar    1  UNL1        0.0572
     24 C         141.1484  136.7121  156.0904 C.ar    1  UNL1        0.0173
     25 C         140.7396  135.6858  155.0757 C.ar    1  UNL1        0.0309
     26 C         141.6435  134.5273  154.7746 C.ar    1  UNL1        0.1402
     27 F         141.2347  133.5010  153.7600 F       1  UNL1       -0.2042
     28 C         142.9562  134.3951  155.4883 C.ar    1  UNL1        0.0309
     29 C         143.3650  135.4214  156.5030 C.ar    1  UNL1        0.0173
@<TRIPOS>BOND
     1    21    22    3
     2    22    12    1
     3    12    13    2
     4    13    14    1
     5    14    15    2
     6    15    16    1
     7    16    17    2
     8     1    17    1
     9     1     2    1
    10     2     3    1
    11     4     3    1
    12     4     5    1
    13     5     6    1
    14     4     7    1
    15     7     8    1
    16     8    23    1
    17    23    24   ar
    18    24    25   ar
    19    25    26   ar
    20    26    27    1
    21    26    28   ar
    22    28    29   ar
    23     8     9   am
    24     9    10    2
    25     9    11    1
    26    17    18    1
    27    18    19    2
    28    19    20    1
    29    20    12    1
    30    19    15    1
    31     6     1    1
    32    29    23   ar
    33    11     4    1
@<TRIPOS>MOLECULE
*****
 29 33 0 0 0
SMALL
GASTEIGER

@<TRIPOS>ATOM
      1 C         140.8729  143.4713  162.5009 C.3     1  UNL1        0.1122
      2 C         140.5372  142.3379  161.5775 C.3     1  UNL1        0.0160
      3 C         140.2525  142.6091  160.1299 C.3     1  UNL1        0.0425
      4 C         140.3035  144.0136  159.6059 C.3     1  UNL1        0.1561
      5 C         140.6392  145.1470  160.5293 C.3     1  UNL1        0.0425
      6 C         140.9239  144.8758  161.9768 C.3     1  UNL1        0.0160
      7 C         140.3167  145.3585  158.9415 C.3     1  UNL1        0.1414
      8 N         139.9769  145.1636  157.4935 N.am    1  UNL1       -0.2215
      9 C         139.7537  143.6982  157.2629 C.2     1  UNL1        0.4086
     10 O         139.3921  143.0564  155.9564 O.2     1  UNL1       -0.2258
     11 O         139.9555  142.9876  158.5684 O.3     1  UNL1       -0.4398
     12 C         141.3779  142.4800  168.8543 C.2     1  UNL1        0.0547
     13 C         142.7998  142.1466  168.5123 C.2     1  UNL1        0.0103
     14 C         143.2642  142.2146  167.0875 C.2     1  UNL1        0.0505
     15 C         142.3067  142.6162  166.0050 C.2     1  UNL1        0.2318
     16 N         142.4753  142.7710  164.5226 N.2     1  UNL1       -0.0351
     17 C         141.1577  143.2001  163.9485 C.2     1  UNL1        0.3506
     18 N         140.1747  143.3105  165.0761 N.2     1  UNL1       -0.0389
     19 C         140.8848  142.9496  166.3471 C.2     1  UNL1        0.2181
     20 C         140.4204  142.8815  167.7718 C.3     1  UNL1        0.1144
     21 N         140.4492  142.3438  171.7037 N.1     1  UNL1       -0.1911
     22 C         140.9136  142.4119  170.2790 C.1     1  UNL1        0.0965
     23 C         139.8778  146.2442  156.4579 C.ar    1  UNL1        0.0572
     24 C         140.6195  146.1105  155.1611 C.ar    1  UNL1        0.0173
     25 C         140.5204  147.1911  154.1256 C.ar    1  UNL1        0.0309
     26 C         139.6795  148.4054  154.3868 C.ar    1  UNL1        0.1402
     27 F         139.5804  149.4861  153.3513 F       1  UNL1       -0.2042
     28 C         138.9378  148.5391  155.6838 C.ar    1  UNL1        0.0309
     29 C         139.0369  147.4585  156.7193 C.ar    1  UNL1        0.0173
@<TRIPOS>BOND
     1    21    22    3
     2    22    12    1
     3    12    13    2
     4    13    14    1
     5    14    15    2
     6    15    16    1
     7    16    17    2
     8     1    17    1
     9     1     2    1
    10     2     3    1
    11     4     3    1
    12     4     5    1
    13     5     6    1
    14     4     7    1
    15     7     8    1
    16     8    23    1
    17    23    24   ar
    18    24    25   ar
    19    25    26   ar
    20    26    27    1
    21    26    28   ar
    22    28    29   ar
    23     8     9   am
    24     9    10    2
    25     9    11    1
    26    17    18    1
    27    18    19    2
    28    19    20    1
    29    20    12    1
    30    19    15    1
    31     6     1    1
    32    29    23   ar
    33    11     4    1
@<TRIPOS>MOLECULE
*****
 29 33 0 0 0
SMALL
GASTEIGER

@<TRIPOS>ATOM
      1 C         138.7364  141.1652  160.5252 C.3     1  UNL1        0.1122
      2 C         139.7174  140.0537  160.7534 C.3     1  UNL1        0.0160
      3 C         140.2443  139.7899  162.1328 C.3     1  UNL1        0.0425
      4 C         139.7901  140.6376  163.2840 C.3     1  UNL1        0.1561
      5 C         138.8090  141.7491  163.0557 C.3     1  UNL1        0.0425
      6 C         138.2822  142.0129  161.6763 C.3     1  UNL1        0.0160
      7 C         139.4294  141.3977  164.5259 C.3     1  UNL1        0.1414
      8 N         140.1866  140.7973  165.6732 N.am    1  UNL1       -0.2215
      9 C         141.0152  139.6661  165.1403 C.2     1  UNL1        0.4086
     10 O         141.9285  138.7879  165.9431 O.2     1  UNL1       -0.2258
     11 O         140.7702  139.5674  163.6638 O.3     1  UNL1       -0.4398
     12 C         136.3611  141.5581  154.5412 C.2     1  UNL1        0.0547
     13 C         136.6109  143.0255  154.7264 C.2     1  UNL1        0.0103
     14 C         137.1922  143.5308  156.0136 C.2     1  UNL1        0.0505
     15 C         137.5236  142.5686  157.1156 C.2     1  UNL1        0.2318
     16 N         138.1019  142.7712  158.4847 N.2     1  UNL1       -0.0351
     17 C         138.2095  141.4290  159.1457 C.2     1  UNL1        0.3506
     18 N         137.6976  140.3969  158.1851 N.2     1  UNL1       -0.0389
     19 C         137.2737  141.1012  156.9304 C.2     1  UNL1        0.2181
     20 C         136.6925  140.5959  155.6432 C.3     1  UNL1        0.1144
     21 N         135.1987  140.5475  151.9668 N.1     1  UNL1       -0.1911
     22 C         135.7799  141.0529  153.2540 C.1     1  UNL1        0.0965
     23 C         140.1258  141.2487  167.1023 C.ar    1  UNL1        0.0572
     24 C         139.6032  140.3223  168.1599 C.ar    1  UNL1        0.0173
     25 C         139.5424  140.7737  169.5890 C.ar    1  UNL1        0.0309
     26 C         140.0041  142.1516  169.9606 C.ar    1  UNL1        0.1402
     27 F         139.9433  142.6031  171.3898 F       1  UNL1       -0.2042
     28 C         140.5267  143.0781  168.9030 C.ar    1  UNL1        0.0309
     29 C         140.5875  142.6267  167.4739 C.ar    1  UNL1        0.0173
@<TRIPOS>BOND
     1    21    22    3
     2    22    12    1
     3    12    13    2
     4    13    14    1
     5    14    15    2
     6    15    16    1
     7    16    17    2
     8     1    17    1
     9     1     2    1
    10     2     3    1
    11     4     3    1
    12     4     5    1
    13     5     6    1
    14     4     7    1
    15     7     8    1
    16     8    23    1
    17    23    24   ar
    18    24    25   ar
    19    25    26   ar
    20    26    27    1
    21    26    28   ar
    22    28    29   ar
    23     8     9   am
    24     9    10    2
    25     9    11    1
    26    17    18    1
    27    18    19    2
    28    19    20    1
    29    20    12    1
    30    19    15    1
    31     6     1    1
    32    29    23   ar
    33    11     4    1
@<TRIPOS>MOLECULE
*****
 29 33 0 0 0
SMALL
GASTEIGER

@<TRIPOS>ATOM
      1 C         141.5239  138.7091  161.6559 C.3     1  UNL1        0.1122
      2 C         142.5495  137.9819  162.4740 C.3     1  UNL1        0.0160
      3 C         142.6653  138.2528  163.9447 C.3     1  UNL1        0.0425
      4 C         141.7555  139.2510  164.5974 C.3     1  UNL1        0.1561
      5 C         140.7299  139.9782  163.7793 C.3     1  UNL1        0.0425
      6 C         140.6141  139.7073  162.3086 C.3     1  UNL1        0.0160
      7 C         140.9196  140.2161  165.3847 C.3     1  UNL1        0.1414
      8 N         141.3751  140.1660  166.8130 N.am    1  UNL1       -0.2215
      9 C         142.4925  139.1698  166.9085 C.2     1  UNL1        0.4086
     10 O         143.2430  138.8035  168.1544 O.2     1  UNL1       -0.2258
     11 O         142.7277  138.6043  165.5392 O.3     1  UNL1       -0.4398
     12 C         140.2891  137.6693  155.4110 C.2     1  UNL1        0.0547
     13 C         141.7688  137.4350  155.3376 C.2     1  UNL1        0.0103
     14 C         142.6091  137.5524  156.5746 C.2     1  UNL1        0.0505
     15 C         141.9696  137.9042  157.8851 C.2     1  UNL1        0.2318
     16 N         142.5371  138.0894  159.2612 N.2     1  UNL1       -0.0351
     17 C         141.4081  138.4382  160.1851 C.2     1  UNL1        0.3506
     18 N         140.1428  138.4686  159.3800 N.2     1  UNL1       -0.0389
     19 C         140.4898  138.1385  157.9585 C.2     1  UNL1        0.2181
     20 C         139.6496  138.0211  156.7215 C.3     1  UNL1        0.1144
     21 N         138.6086  137.4344  152.9370 N.1     1  UNL1       -0.1911
     22 C         139.4489  137.5519  154.1740 C.1     1  UNL1        0.0965
     23 C         140.8120  140.9706  167.9468 C.ar    1  UNL1        0.0572
     24 C         141.1755  142.4186  168.0919 C.ar    1  UNL1        0.0173
     25 C         140.6125  143.2233  169.2256 C.ar    1  UNL1        0.0309
     26 C         139.6858  142.5800  170.2143 C.ar    1  UNL1        0.1402
     27 F         139.1228  143.3847  171.3480 F       1  UNL1       -0.2042
     28 C         139.3223  141.1319  170.0692 C.ar    1  UNL1        0.0309
     29 C         139.8854  140.3273  168.9354 C.ar    1  UNL1        0.0173
@<TRIPOS>BOND
     1    21    22    3
     2    22    12    1
     3    12    13    2
     4    13    14    1
     5    14    15    2
     6    15    16    1
     7    16    17    2
     8     1    17    1
     9     1     2    1
    10     2     3    1
    11     4     3    1
    12     4     5    1
    13     5     6    1
    14     4     7    1
    15     7     8    1
    16     8    23    1
    17    23    24   ar
    18    24    25   ar
    19    25    26   ar
    20    26    27    1
    21    26    28   ar
    22    28    29   ar
    23     8     9   am
    24     9    10    2
    25     9    11    1
    26    17    18    1
    27    18    19    2
    28    19    20    1
    29    20    12    1
    30    19    15    1
    31     6     1    1
    32    29    23   ar
    33    11     4    1
@<TRIPOS>MOLECULE
*****
 29 33 0 0 0
SMALL
GASTEIGER

@<TRIPOS>ATOM
      1 C         141.8689  138.6028  158.1335 C.3     1  UNL1        0.1122
      2 C         142.4392  139.8726  157.5748 C.3     1  UNL1        0.0160
      3 C         142.2128  141.1734  158.2866 C.3     1  UNL1        0.0425
      4 C         141.4161  141.2043  159.5571 C.3     1  UNL1        0.1561
      5 C         140.8458  139.9345  160.1159 C.3     1  UNL1        0.0425
      6 C         141.0722  138.6337  159.4040 C.3     1  UNL1        0.0160
      7 C         140.6445  141.3902  160.8300 C.3     1  UNL1        0.1414
      8 N         140.6731  142.8484  161.1806 N.am    1  UNL1       -0.2215
      9 C         141.4624  143.5637  160.1245 C.2     1  UNL1        0.4086
     10 O         141.7432  145.0364  160.0796 O.2     1  UNL1       -0.2258
     11 O         141.9216  142.5476  159.1211 O.3     1  UNL1       -0.4398
     12 C         143.4035  132.8916  155.5583 C.2     1  UNL1        0.0547
     13 C         142.2681  133.2026  154.6287 C.2     1  UNL1        0.0103
     14 C         141.5043  134.4847  154.7803 C.2     1  UNL1        0.0505
     15 C         141.8759  135.4557  155.8615 C.2     1  UNL1        0.2318
     16 N         141.3098  136.7890  156.2512 N.2     1  UNL1       -0.0351
     17 C         142.0953  137.3019  157.4217 C.2     1  UNL1        0.3506
     18 N         143.1469  136.2857  157.7553 N.2     1  UNL1       -0.0389
     19 C         143.0114  135.1446  156.7911 C.2     1  UNL1        0.2181
     20 C         143.7751  133.8626  156.6395 C.3     1  UNL1        0.1144
     21 N         144.9309  130.3274  155.2550 N.1     1  UNL1       -0.1911
     22 C         144.1672  131.6096  155.4066 C.1     1  UNL1        0.0965
     23 C         140.0260  143.4803  162.3773 C.ar    1  UNL1        0.0572
     24 C         138.5325  143.5997  162.4467 C.ar    1  UNL1        0.0173
     25 C         137.8854  144.2316  163.6434 C.ar    1  UNL1        0.0309
     26 C         138.7319  144.7442  164.7706 C.ar    1  UNL1        0.1402
     27 F         138.0848  145.3761  165.9672 F       1  UNL1       -0.2042
     28 C         140.2255  144.6248  164.7011 C.ar    1  UNL1        0.0309
     29 C         140.8726  143.9929  163.5045 C.ar    1  UNL1        0.0173
@<TRIPOS>BOND
     1    21    22    3
     2    22    12    1
     3    12    13    2
     4    13    14    1
     5    14    15    2
     6    15    16    1
     7    16    17    2
     8     1    17    1
     9     1     2    1
    10     2     3    1
    11     4     3    1
    12     4     5    1
    13     5     6    1
    14     4     7    1
    15     7     8    1
    16     8    23    1
    17    23    24   ar
    18    24    25   ar
    19    25    26   ar
    20    26    27    1
    21    26    28   ar
    22    28    29   ar
    23     8     9   am
    24     9    10    2
    25     9    11    1
    26    17    18    1
    27    18    19    2
    28    19    20    1
    29    20    12    1
    30    19    15    1
    31     6     1    1
    32    29    23   ar
    33    11     4    1
@<TRIPOS>MOLECULE
*****
 29 33 0 0 0
SMALL
GASTEIGER

@<TRIPOS>ATOM
      1 C         142.0249  142.0637  162.9123 C.3     1  UNL1        0.1122
      2 C         141.2166  142.9373  161.9994 C.3     1  UNL1        0.0160
      3 C         141.6893  143.2003  160.6003 C.3     1  UNL1        0.0425
      4 C         142.9703  142.5897  160.1143 C.3     1  UNL1        0.1561
      5 C         143.7786  141.7162  161.0272 C.3     1  UNL1        0.0425
      6 C         143.3059  141.4531  162.4262 C.3     1  UNL1        0.0160
      7 C         144.2241  142.0511  159.4913 C.3     1  UNL1        0.1414
      8 N         144.3009  142.5661  158.0845 N.am    1  UNL1       -0.2215
      9 C         143.0946  143.4230  157.8380 C.2     1  UNL1        0.4086
     10 O         142.7681  144.1394  156.5614 O.2     1  UNL1       -0.2258
     11 O         142.2723  143.4376  159.0924 O.3     1  UNL1       -0.4398
     12 C         140.4189  141.5154  169.1352 C.2     1  UNL1        0.0547
     13 C         139.5933  140.3651  168.6400 C.2     1  UNL1        0.0103
     14 C         139.5899  140.0177  167.1808 C.2     1  UNL1        0.0505
     15 C         140.4120  140.8207  166.2167 C.2     1  UNL1        0.2318
     16 N         140.6064  140.7154  164.7331 N.2     1  UNL1       -0.0351
     17 C         141.5522  141.8006  164.3114 C.2     1  UNL1        0.3506
     18 N         141.9422  142.5767  165.5344 N.2     1  UNL1       -0.0389
     19 C         141.2376  141.9711  166.7120 C.2     1  UNL1        0.2181
     20 C         141.2410  142.3184  168.1712 C.3     1  UNL1        0.1144
     21 N         140.4257  142.2101  172.0537 N.1     1  UNL1       -0.1911
     22 C         140.4223  141.8628  170.5944 C.1     1  UNL1        0.0965
     23 C         145.3924  142.2753  157.0975 C.ar    1  UNL1        0.0572
     24 C         145.0886  141.4992  155.8505 C.ar    1  UNL1        0.0173
     25 C         146.1800  141.2083  154.8635 C.ar    1  UNL1        0.0309
     26 C         147.5753  141.6936  155.1236 C.ar    1  UNL1        0.1402
     27 F         148.6667  141.4027  154.1366 F       1  UNL1       -0.2042
     28 C         147.8791  142.4697  156.3707 C.ar    1  UNL1        0.0309
     29 C         146.7876  142.7606  157.3577 C.ar    1  UNL1        0.0173
@<TRIPOS>BOND
     1    21    22    3
     2    22    12    1
     3    12    13    2
     4    13    14    1
     5    14    15    2
     6    15    16    1
     7    16    17    2
     8     1    17    1
     9     1     2    1
    10     2     3    1
    11     4     3    1
    12     4     5    1
    13     5     6    1
    14     4     7    1
    15     7     8    1
    16     8    23    1
    17    23    24   ar
    18    24    25   ar
    19    25    26   ar
    20    26    27    1
    21    26    28   ar
    22    28    29   ar
    23     8     9   am
    24     9    10    2
    25     9    11    1
    26    17    18    1
    27    18    19    2
    28    19    20    1
    29    20    12    1
    30    19    15    1
    31     6     1    1
    32    29    23   ar
    33    11     4    1
@<TRIPOS>MOLECULE
*****
 29 33 0 0 0
SMALL
GASTEIGER

@<TRIPOS>ATOM
      1 C         142.2705  140.0815  160.6190 C.3     1  UNL1        0.1122
      2 C         142.1951  138.9436  159.6445 C.3     1  UNL1        0.0160
      3 C         142.9642  139.0057  158.3582 C.3     1  UNL1        0.0425
      4 C         143.8087  140.2055  158.0464 C.3     1  UNL1        0.1561
      5 C         143.8840  141.3433  159.0209 C.3     1  UNL1        0.0425
      6 C         143.1149  141.2813  160.3072 C.3     1  UNL1        0.0160
      7 C         144.6904  141.3339  157.5999 C.3     1  UNL1        0.1414
      8 N         145.2578  140.9758  156.2582 N.am    1  UNL1       -0.2215
      9 C         144.7268  139.6261  155.8756 C.2     1  UNL1        0.4086
     10 O         145.0368  138.8830  154.6102 O.2     1  UNL1       -0.2258
     11 O         143.8312  139.1501  156.9807 O.3     1  UNL1       -0.4398
     12 C         138.6950  139.1564  165.9072 C.2     1  UNL1        0.0547
     13 C         139.2761  140.4767  166.3183 C.2     1  UNL1        0.0103
     14 C         140.2327  141.1907  165.4098 C.2     1  UNL1        0.0505
     15 C         140.6083  140.5842  164.0903 C.2     1  UNL1        0.2318
     16 N         141.5193  141.0512  162.9940 N.2     1  UNL1       -0.0351
     17 C         141.5013  140.0195  161.9053 C.2     1  UNL1        0.3506
     18 N         140.5791  138.9148  162.3288 N.2     1  UNL1       -0.0389
     19 C         140.0272  139.2638  163.6792 C.2     1  UNL1        0.2181
     20 C         139.0706  138.5499  164.5876 C.3     1  UNL1        0.1144
     21 N         136.7817  137.7287  167.7240 N.1     1  UNL1       -0.1911
     22 C         137.7384  138.4426  166.8156 C.1     1  UNL1        0.0965
     23 C         146.1922  141.8193  155.4425 C.ar    1  UNL1        0.0572
     24 C         145.6582  142.9685  154.6400 C.ar    1  UNL1        0.0173
     25 C         146.5926  143.8119  153.8242 C.ar    1  UNL1        0.0309
     26 C         148.0610  143.5062  153.8110 C.ar    1  UNL1        0.1402
     27 F         148.9953  144.3497  152.9952 F       1  UNL1       -0.2042
     28 C         148.5950  142.3570  154.6135 C.ar    1  UNL1        0.0309
     29 C         147.6606  141.5135  155.4293 C.ar    1  UNL1        0.0173
@<TRIPOS>BOND
     1    21    22    3
     2    22    12    1
     3    12    13    2
     4    13    14    1
     5    14    15    2
     6    15    16    1
     7    16    17    2
     8     1    17    1
     9     1     2    1
    10     2     3    1
    11     4     3    1
    12     4     5    1
    13     5     6    1
    14     4     7    1
    15     7     8    1
    16     8    23    1
    17    23    24   ar
    18    24    25   ar
    19    25    26   ar
    20    26    27    1
    21    26    28   ar
    22    28    29   ar
    23     8     9   am
    24     9    10    2
    25     9    11    1
    26    17    18    1
    27    18    19    2
    28    19    20    1
    29    20    12    1
    30    19    15    1
    31     6     1    1
    32    29    23   ar
    33    11     4    1
@<TRIPOS>MOLECULE
*****
 29 33 0 0 0
SMALL
GASTEIGER

@<TRIPOS>ATOM
      1 C         139.3652  142.5464  160.8910 C.3     1  UNL1        0.1122
      2 C         138.1483  141.7547  161.2681 C.3     1  UNL1        0.0160
      3 C         138.0918  141.0509  162.5915 C.3     1  UNL1        0.0425
      4 C         139.2522  141.1390  163.5379 C.3     1  UNL1        0.1561
      5 C         140.4692  141.9307  163.1609 C.3     1  UNL1        0.0425
      6 C         140.5256  142.6344  161.8374 C.3     1  UNL1        0.0160
      7 C         140.3295  141.1362  164.5818 C.3     1  UNL1        0.1414
      8 N         139.8516  140.3099  165.7389 N.am    1  UNL1       -0.2215
      9 C         138.4790  139.8019  165.4102 C.2     1  UNL1        0.4086
     10 O         137.6265  138.9341  166.2876 O.2     1  UNL1       -0.2258
     11 O         138.1086  140.3143  164.0499 O.3     1  UNL1       -0.4398
     12 C         139.8559  146.1724  155.5792 C.2     1  UNL1        0.0547
     13 C         139.3575  144.9322  154.8983 C.2     1  UNL1        0.0103
     14 C         139.0593  143.7026  155.7041 C.2     1  UNL1        0.0505
     15 C         139.2595  143.7132  157.1906 C.2     1  UNL1        0.2318
     16 N         139.0517  142.6606  158.2389 N.2     1  UNL1       -0.0351
     17 C         139.4218  143.2502  159.5675 C.2     1  UNL1        0.3506
     18 N         139.8583  144.6672  159.3404 N.2     1  UNL1       -0.0389
     19 C         139.7580  144.9534  157.8714 C.2     1  UNL1        0.2181
     20 C         140.0562  146.1829  157.0657 C.3     1  UNL1        0.1144
     21 N         140.4523  148.6316  153.9677 N.1     1  UNL1       -0.1911
     22 C         140.1541  147.4019  154.7734 C.1     1  UNL1        0.0965
     23 C         140.6126  140.0391  167.0028 C.ar    1  UNL1        0.0572
     24 C         142.0185  139.5208  166.9353 C.ar    1  UNL1        0.0173
     25 C         142.7796  139.2500  168.1992 C.ar    1  UNL1        0.0309
     26 C         142.1347  139.4976  169.5306 C.ar    1  UNL1        0.1402
     27 F         142.8957  139.2268  170.7945 F       1  UNL1       -0.2042
     28 C         140.7287  140.0159  169.5982 C.ar    1  UNL1        0.0309
     29 C         139.9677  140.2867  168.3343 C.ar    1  UNL1        0.0173
@<TRIPOS>BOND
     1    21    22    3
     2    22    12    1
     3    12    13    2
     4    13    14    1
     5    14    15    2
     6    15    16    1
     7    16    17    2
     8     1    17    1
     9     1     2    1
    10     2     3    1
    11     4     3    1
    12     4     5    1
    13     5     6    1
    14     4     7    1
    15     7     8    1
    16     8    23    1
    17    23    24   ar
    18    24    25   ar
    19    25    26   ar
    20    26    27    1
    21    26    28   ar
    22    28    29   ar
    23     8     9   am
    24     9    10    2
    25     9    11    1
    26    17    18    1
    27    18    19    2
    28    19    20    1
    29    20    12    1
    30    19    15    1
    31     6     1    1
    32    29    23   ar
    33    11     4    1
@<TRIPOS>MOLECULE
*****
 29 33 0 0 0
SMALL
GASTEIGER

@<TRIPOS>ATOM
      1 C         143.2422  142.2075  160.5493 C.3     1  UNL1        0.1122
      2 C         142.3902  143.4354  160.6768 C.3     1  UNL1        0.0160
      3 C         141.5802  143.6605  161.9190 C.3     1  UNL1        0.0425
      4 C         141.6221  142.6577  163.0336 C.3     1  UNL1        0.1561
      5 C         142.4740  141.4297  162.9061 C.3     1  UNL1        0.0425
      6 C         143.2841  141.2047  161.6640 C.3     1  UNL1        0.0160
      7 C         141.5634  141.7480  164.2249 C.3     1  UNL1        0.1414
      8 N         140.6334  142.3601  165.2303 N.am    1  UNL1       -0.2215
      9 C         140.1174  143.6481  164.6603 C.2     1  UNL1        0.4086
     10 O         139.1587  144.5872  165.3302 O.2     1  UNL1       -0.2258
     11 O         140.7283  143.8320  163.3028 O.3     1  UNL1       -0.4398
     12 C         147.1427  141.8251  155.4263 C.2     1  UNL1        0.0547
     13 C         146.2616  140.6672  155.0616 C.2     1  UNL1        0.0103
     14 C         145.1195  140.2832  155.9549 C.2     1  UNL1        0.0505
     15 C         144.8584  141.0571  157.2131 C.2     1  UNL1        0.2318
     16 N         143.8157  140.9134  158.2818 N.2     1  UNL1       -0.0351
     17 C         144.0523  141.9824  159.3070 C.2     1  UNL1        0.3506
     18 N         145.2413  142.7868  158.8720 N.2     1  UNL1       -0.0389
     19 C         145.7395  142.2150  157.5779 C.2     1  UNL1        0.2181
     20 C         146.8816  142.5990  156.6845 C.3     1  UNL1        0.1144
     21 N         149.4269  142.5931  153.6395 N.1     1  UNL1       -0.1911
     22 C         148.2847  142.2091  154.5330 C.1     1  UNL1        0.0965
     23 C         140.2814  141.7851  166.5702 C.ar    1  UNL1        0.0572
     24 C         140.6149  142.5414  167.8219 C.ar    1  UNL1        0.0173
     25 C         140.2628  141.9665  169.1618 C.ar    1  UNL1        0.0309
     26 C         139.5774  140.6353  169.2501 C.ar    1  UNL1        0.1402
     27 F         139.2254  140.0604  170.5901 F       1  UNL1       -0.2042
     28 C         139.2439  139.8789  167.9984 C.ar    1  UNL1        0.0309
     29 C         139.5959  140.4539  166.6585 C.ar    1  UNL1        0.0173
@<TRIPOS>BOND
     1    21    22    3
     2    22    12    1
     3    12    13    2
     4    13    14    1
     5    14    15    2
     6    15    16    1
     7    16    17    2
     8     1    17    1
     9     1     2    1
    10     2     3    1
    11     4     3    1
    12     4     5    1
    13     5     6    1
    14     4     7    1
    15     7     8    1
    16     8    23    1
    17    23    24   ar
    18    24    25   ar
    19    25    26   ar
    20    26    27    1
    21    26    28   ar
    22    28    29   ar
    23     8     9   am
    24     9    10    2
    25     9    11    1
    26    17    18    1
    27    18    19    2
    28    19    20    1
    29    20    12    1
    30    19    15    1
    31     6     1    1
    32    29    23   ar
    33    11     4    1
