@<TRIPOS>MOLECULE
*****
 36 38 0 0 0
SMALL
GASTEIGER

@<TRIPOS>ATOM
      1 C         140.0348  138.1791  163.1255 C.ar    1  UNL1        0.0504
      2 C         139.1343  137.9030  161.9581 C.ar    1  UNL1        0.0147
      3 C         139.6607  138.0274  160.5590 C.ar    1  UNL1        0.0014
      4 C         141.0875  138.4280  160.3273 C.ar    1  UNL1        0.0043
      5 C         141.6138  138.5524  158.9282 C.ar    1  UNL1        0.0208
      6 C         143.0406  138.9530  158.6965 C.ar    1  UNL1        0.1003
      7 N         143.9411  139.2292  159.8639 N.ar    1  UNL1       -0.2291
      8 C         143.4148  139.1048  161.2630 C.ar    1  UNL1        0.1322
      9 C         141.9879  138.7041  161.4947 C.ar    1  UNL1        0.0330
     10 C         141.4616  138.5797  162.8938 C.ar    1  UNL1        0.0174
     11 C         138.6050  139.1138  165.0830 C.2     1  UNL1        0.2261
     12 O         138.2278  140.2975  164.2423 O.2     1  UNL1       -0.2748
     13 N         139.5084  138.0547  164.5246 N.am    1  UNL1       -0.2839
     14 H         139.7560  137.2778  165.0764 H       1  UNL1        0.1549
     15 C         138.0786  138.9894  166.4821 C.3     1  UNL1        0.0854
     16 C         138.8783  139.5214  167.6343 C.3     1  UNL1        0.0096
     17 C         140.1961  140.1934  167.3858 C.3     1  UNL1        0.0005
     18 C         141.4569  139.6006  167.9417 C.3     1  UNL1        0.0005
     19 C         141.8562  139.8819  169.3600 C.3     1  UNL1        0.0096
     20 C         142.9979  140.8114  169.6474 C.3     1  UNL1        0.0871
     21 O         141.6656  141.9823  171.5459 O.2     1  UNL1       -0.2730
     22 C         142.7991  141.9825  170.5634 C.2     1  UNL1        0.2443
     23 N         143.7338  143.1538  170.4969 N.am    1  UNL1       -0.1970
     24 O         143.5351  144.3249  171.4129 O.3     1  UNL1       -0.2952
     25 H         144.4777  143.1539  169.8521 H       1  UNL1        0.1822
     26 H         142.7642  144.1650  171.9796 H       1  UNL1        0.2414
     27 N         144.3152  139.3809  162.4304 N.pl3   1  UNL1       -0.2962
     28 H         144.9084  138.6737  162.7727 H       1  UNL1        0.1537
     29 C         144.3119  140.7347  163.0764 C.ar    1  UNL1        0.0780
     30 C         144.7283  141.9421  162.2898 C.ar    1  UNL1        0.0170
     31 C         144.7250  143.2958  162.9359 C.ar    1  UNL1        0.0023
     32 C         144.3052  143.4422  164.3685 C.ar    1  UNL1        0.0138
     33 C         143.8888  142.2348  165.1551 C.ar    1  UNL1        0.0863
     34 CL        143.4691  142.3811  166.5877 Cl      1  UNL1       -0.0799
     35 C         143.8922  140.8811  164.5091 C.ar    1  UNL1        0.1639
     36 F         143.4757  139.6736  165.2957 F       1  UNL1       -0.2020
@<TRIPOS>BOND
     1    21    22    2
     2    22    20    1
     3    20    19    1
     4    19    18    1
     5    18    17    1
     6    17    16    1
     7    16    15    1
     8    15    11    1
     9    11    12    2
    10    11    13   am
    11    13     1    1
    12     1     2   ar
    13     2     3   ar
    14     3     4   ar
    15     4     5   ar
    16     5     6   ar
    17     6     7   ar
    18     7     8   ar
    19     8    27    1
    20    27    29    1
    21    29    30   ar
    22    30    31   ar
    23    31    32   ar
    24    32    33   ar
    25    33    34    1
    26    33    35   ar
    27    35    36    1
    28     8     9   ar
    29     9    10   ar
    30    22    23   am
    31    23    24    1
    32    10     1   ar
    33     9     4   ar
    34    35    29   ar
    35    13    14    1
    36    27    28    1
    37    23    25    1
    38    24    26    1
@<TRIPOS>MOLECULE
*****
 36 38 0 0 0
SMALL
GASTEIGER

@<TRIPOS>ATOM
      1 C         139.8078  139.6206  166.3340 C.ar    1  UNL1        0.0504
      2 C         139.2043  138.3489  165.8158 C.ar    1  UNL1        0.0147
      3 C         138.5923  138.3125  164.4468 C.ar    1  UNL1        0.0014
      4 C         138.5839  139.5478  163.5960 C.ar    1  UNL1        0.0043
      5 C         137.9719  139.5114  162.2270 C.ar    1  UNL1        0.0208
      6 C         137.9635  140.7466  161.3761 C.ar    1  UNL1        0.1003
      7 N         138.5670  142.0184  161.8942 N.ar    1  UNL1       -0.2291
      8 C         139.1790  142.0548  163.2633 C.ar    1  UNL1        0.1322
      9 C         139.1874  140.8195  164.1141 C.ar    1  UNL1        0.0330
     10 C         139.7993  140.8559  165.4831 C.ar    1  UNL1        0.0174
     11 C         141.9114  139.6327  167.8586 C.2     1  UNL1        0.2261
     12 O         142.7912  139.5720  166.6452 O.2     1  UNL1       -0.2748
     13 N         140.4198  139.6570  167.7030 N.am    1  UNL1       -0.2839
     14 H         139.8423  139.6969  168.4994 H       1  UNL1        0.1549
     15 C         142.5234  139.6691  169.2276 C.3     1  UNL1        0.0854
     16 C         143.2908  140.8782  169.6742 C.3     1  UNL1        0.0096
     17 C         143.0413  142.2070  169.0244 C.3     1  UNL1        0.0005
     18 C         142.0094  143.1367  169.5906 C.3     1  UNL1        0.0005
     19 C         140.5991  143.0914  169.0817 C.3     1  UNL1        0.0096
     20 C         139.5146  142.4954  169.9295 C.3     1  UNL1        0.0871
     21 O         140.7382  141.7096  172.0825 O.2     1  UNL1       -0.2730
     22 C         139.8426  141.4141  170.9160 C.2     1  UNL1        0.2443
     23 N         139.2753  140.0373  170.7359 N.am    1  UNL1       -0.1970
     24 O         139.6033  138.9560  171.7224 O.3     1  UNL1       -0.2952
     25 H         138.6875  139.8433  169.9703 H       1  UNL1        0.1822
     26 H         140.1890  139.3115  172.4090 H       1  UNL1        0.2414
     27 N         139.7825  143.3265  163.7814 N.pl3   1  UNL1       -0.2962
     28 H         139.2279  143.9650  164.2854 H       1  UNL1        0.1537
     29 C         141.2311  143.6254  163.5317 C.ar    1  UNL1        0.0780
     30 C         141.6860  144.0424  162.1646 C.ar    1  UNL1        0.0170
     31 C         143.1346  144.3413  161.9150 C.ar    1  UNL1        0.0023
     32 C         144.1282  144.2232  163.0325 C.ar    1  UNL1        0.0138
     33 C         143.6732  143.8063  164.3996 C.ar    1  UNL1        0.0863
     34 CL        144.6668  143.6882  165.5172 Cl      1  UNL1       -0.0799
     35 C         142.2247  143.5074  164.6493 C.ar    1  UNL1        0.1639
     36 F         141.7697  143.0904  166.0164 F       1  UNL1       -0.2020
@<TRIPOS>BOND
     1    21    22    2
     2    22    20    1
     3    20    19    1
     4    19    18    1
     5    18    17    1
     6    17    16    1
     7    16    15    1
     8    15    11    1
     9    11    12    2
    10    11    13   am
    11    13     1    1
    12     1     2   ar
    13     2     3   ar
    14     3     4   ar
    15     4     5   ar
    16     5     6   ar
    17     6     7   ar
    18     7     8   ar
    19     8    27    1
    20    27    29    1
    21    29    30   ar
    22    30    31   ar
    23    31    32   ar
    24    32    33   ar
    25    33    34    1
    26    33    35   ar
    27    35    36    1
    28     8     9   ar
    29     9    10   ar
    30    22    23   am
    31    23    24    1
    32    10     1   ar
    33     9     4   ar
    34    35    29   ar
    35    13    14    1
    36    27    28    1
    37    23    25    1
    38    24    26    1
@<TRIPOS>MOLECULE
*****
 36 38 0 0 0
SMALL
GASTEIGER

@<TRIPOS>ATOM
      1 C         139.8564  138.9941  165.1974 C.ar    1  UNL1        0.0504
      2 C         139.9789  137.5565  164.7870 C.ar    1  UNL1        0.0147
      3 C         140.7449  137.1923  163.5498 C.ar    1  UNL1        0.0014
      4 C         141.3883  138.2657  162.7229 C.ar    1  UNL1        0.0043
      5 C         142.1543  137.9015  161.4857 C.ar    1  UNL1        0.0208
      6 C         142.7977  138.9748  160.6588 C.ar    1  UNL1        0.1003
      7 N         142.6753  140.4125  161.0691 N.ar    1  UNL1       -0.2291
      8 C         141.9093  140.7767  162.3063 C.ar    1  UNL1        0.1322
      9 C         141.2658  139.7032  163.1332 C.ar    1  UNL1        0.0330
     10 C         140.4999  140.0674  164.3705 C.ar    1  UNL1        0.0174
     11 C         139.8226  139.6556  167.7096 C.2     1  UNL1        0.2261
     12 O         141.3206  139.5887  167.7474 O.2     1  UNL1       -0.2748
     13 N         139.0905  139.3583  166.4346 N.am    1  UNL1       -0.2839
     14 H         138.1073  139.4022  166.4098 H       1  UNL1        0.1549
     15 C         139.0566  140.0197  168.9468 C.3     1  UNL1        0.0854
     16 C         139.7590  140.6781  170.0971 C.3     1  UNL1        0.0096
     17 C         139.6311  142.1580  170.3063 C.3     1  UNL1        0.0005
     18 C         140.7154  143.0791  169.8312 C.3     1  UNL1        0.0005
     19 C         141.2728  142.9302  168.4466 C.3     1  UNL1        0.0096
     20 C         142.6783  142.4433  168.2523 C.3     1  UNL1        0.0871
     21 O         144.4737  142.7990  170.0962 O.2     1  UNL1       -0.2730
     22 C         143.4601  141.9227  169.4218 C.2     1  UNL1        0.2443
     23 N         143.2283  140.5259  169.9169 N.am    1  UNL1       -0.1970
     24 O         144.0102  140.0053  171.0864 O.3     1  UNL1       -0.2952
     25 H         142.5631  139.9508  169.4742 H       1  UNL1        0.1822
     26 H         144.6171  140.6932  171.4016 H       1  UNL1        0.2414
     27 N         141.7868  142.2142  162.7166 N.pl3   1  UNL1       -0.2962
     28 H         142.5961  142.7591  162.8486 H       1  UNL1        0.1537
     29 C         140.4313  142.8216  162.9258 C.ar    1  UNL1        0.0780
     30 C         139.3540  142.6226  161.9013 C.ar    1  UNL1        0.0170
     31 C         137.9986  143.2299  162.1105 C.ar    1  UNL1        0.0023
     32 C         137.7204  144.0364  163.3443 C.ar    1  UNL1        0.0138
     33 C         138.7977  144.2355  164.3689 C.ar    1  UNL1        0.0863
     34 CL        138.5196  145.0419  165.6027 Cl      1  UNL1       -0.0799
     35 C         140.1532  143.6281  164.1596 C.ar    1  UNL1        0.1639
     36 F         141.2305  143.8271  165.1842 F       1  UNL1       -0.2020
@<TRIPOS>BOND
     1    21    22    2
     2    22    20    1
     3    20    19    1
     4    19    18    1
     5    18    17    1
     6    17    16    1
     7    16    15    1
     8    15    11    1
     9    11    12    2
    10    11    13   am
    11    13     1    1
    12     1     2   ar
    13     2     3   ar
    14     3     4   ar
    15     4     5   ar
    16     5     6   ar
    17     6     7   ar
    18     7     8   ar
    19     8    27    1
    20    27    29    1
    21    29    30   ar
    22    30    31   ar
    23    31    32   ar
    24    32    33   ar
    25    33    34    1
    26    33    35   ar
    27    35    36    1
    28     8     9   ar
    29     9    10   ar
    30    22    23   am
    31    23    24    1
    32    10     1   ar
    33     9     4   ar
    34    35    29   ar
    35    13    14    1
    36    27    28    1
    37    23    25    1
    38    24    26    1
@<TRIPOS>MOLECULE
*****
 36 38 0 0 0
SMALL
GASTEIGER

@<TRIPOS>ATOM
      1 C         141.2709  139.5143  163.5460 C.ar    1  UNL1        0.0504
      2 C         140.7348  138.2490  162.9448 C.ar    1  UNL1        0.0147
      3 C         139.6706  137.4708  163.6602 C.ar    1  UNL1        0.0014
      4 C         139.1424  137.9580  164.9769 C.ar    1  UNL1        0.0043
      5 C         138.0782  137.1798  165.6923 C.ar    1  UNL1        0.0208
      6 C         137.5500  137.6670  167.0090 C.ar    1  UNL1        0.1003
      7 N         138.0860  138.9324  167.6102 N.ar    1  UNL1       -0.2291
      8 C         139.1503  139.7106  166.8948 C.ar    1  UNL1        0.1322
      9 C         139.6784  139.2233  165.5781 C.ar    1  UNL1        0.0330
     10 C         140.7427  140.0015  164.8626 C.ar    1  UNL1        0.0174
     11 C         143.7826  139.9947  163.0873 C.2     1  UNL1        0.2261
     12 O         144.1659  138.9187  164.0597 O.2     1  UNL1       -0.2748
     13 N         142.3351  140.2925  162.8305 N.am    1  UNL1       -0.2839
     14 H         142.0835  140.9987  162.1923 H       1  UNL1        0.1549
     15 C         144.8468  140.7729  162.3719 C.3     1  UNL1        0.0854
     16 C         145.2390  142.1346  162.8639 C.3     1  UNL1        0.0096
     17 C         144.5604  143.3545  162.3149 C.3     1  UNL1        0.0005
     18 C         144.0119  144.3920  163.2491 C.3     1  UNL1        0.0005
     19 C         143.1125  143.9843  164.3781 C.3     1  UNL1        0.0096
     20 C         141.6391  143.8273  164.1441 C.3     1  UNL1        0.0871
     21 O         140.5310  143.8054  161.7942 O.2     1  UNL1       -0.2730
     22 C         140.9774  144.5573  163.0130 C.2     1  UNL1        0.2443
     23 N         140.7622  146.0392  163.1008 N.am    1  UNL1       -0.1970
     24 O         140.1005  146.7692  161.9697 O.3     1  UNL1       -0.2952
     25 H         141.0552  146.5327  163.9007 H       1  UNL1        0.1822
     26 H         139.8765  146.1403  161.2660 H       1  UNL1        0.2414
     27 N         139.6863  140.9759  167.4960 N.pl3   1  UNL1       -0.2962
     28 H         139.2793  141.8419  167.2644 H       1  UNL1        0.1537
     29 C         140.8426  140.9219  168.4501 C.ar    1  UNL1        0.0780
     30 C         141.4914  139.6075  168.7684 C.ar    1  UNL1        0.0170
     31 C         142.6476  139.5536  169.7225 C.ar    1  UNL1        0.0023
     32 C         143.1550  140.8139  170.3582 C.ar    1  UNL1        0.0138
     33 C         142.5061  142.1283  170.0398 C.ar    1  UNL1        0.0863
     34 CL        143.0134  143.3886  170.6755 Cl      1  UNL1       -0.0799
     35 C         141.3499  142.1823  169.0858 C.ar    1  UNL1        0.1639
     36 F         140.7010  143.4967  168.7674 F       1  UNL1       -0.2020
@<TRIPOS>BOND
     1    21    22    2
     2    22    20    1
     3    20    19    1
     4    19    18    1
     5    18    17    1
     6    17    16    1
     7    16    15    1
     8    15    11    1
     9    11    12    2
    10    11    13   am
    11    13     1    1
    12     1     2   ar
    13     2     3   ar
    14     3     4   ar
    15     4     5   ar
    16     5     6   ar
    17     6     7   ar
    18     7     8   ar
    19     8    27    1
    20    27    29    1
    21    29    30   ar
    22    30    31   ar
    23    31    32   ar
    24    32    33   ar
    25    33    34    1
    26    33    35   ar
    27    35    36    1
    28     8     9   ar
    29     9    10   ar
    30    22    23   am
    31    23    24    1
    32    10     1   ar
    33     9     4   ar
    34    35    29   ar
    35    13    14    1
    36    27    28    1
    37    23    25    1
    38    24    26    1
@<TRIPOS>MOLECULE
*****
 36 38 0 0 0
SMALL
GASTEIGER

@<TRIPOS>ATOM
      1 C         142.7559  142.7323  164.2096 C.ar    1  UNL1        0.0504
      2 C         143.4596  143.8281  163.4652 C.ar    1  UNL1        0.0147
      3 C         142.6643  144.8763  162.7449 C.ar    1  UNL1        0.0014
      4 C         141.1653  144.8287  162.7690 C.ar    1  UNL1        0.0043
      5 C         140.3700  145.8769  162.0487 C.ar    1  UNL1        0.0208
      6 C         138.8710  145.8294  162.0728 C.ar    1  UNL1        0.1003
      7 N         138.1672  144.7336  162.8172 N.ar    1  UNL1       -0.2291
      8 C         138.9625  143.6854  163.5375 C.ar    1  UNL1        0.1322
      9 C         140.4616  143.7330  163.5134 C.ar    1  UNL1        0.0330
     10 C         141.2569  142.6848  164.2336 C.ar    1  UNL1        0.0174
     11 C         143.9573  140.4288  164.2164 C.2     1  UNL1        0.2261
     12 O         143.5682  140.2216  162.7826 O.2     1  UNL1       -0.2748
     13 N         143.5512  141.6842  164.9298 N.am    1  UNL1       -0.2839
     14 H         143.8066  141.8202  165.8709 H       1  UNL1        0.1549
     15 C         144.7526  139.3806  164.9367 C.3     1  UNL1        0.0854
     16 C         144.0714  138.4488  165.8947 C.3     1  UNL1        0.0096
     17 C         142.5735  138.3945  165.9511 C.3     1  UNL1        0.0005
     18 C         141.8266  139.2747  166.9089 C.3     1  UNL1        0.0005
     19 C         142.5481  139.9149  168.0577 C.3     1  UNL1        0.0096
     20 C         142.3096  139.4299  169.4570 C.3     1  UNL1        0.0871
     21 O         139.9011  139.6030  170.4158 O.2     1  UNL1       -0.2730
     22 C         141.3056  140.1227  170.3300 C.2     1  UNL1        0.2443
     23 N         141.7061  141.3352  171.1170 N.am    1  UNL1       -0.1970
     24 O         140.7021  142.0280  171.9900 O.3     1  UNL1       -0.2952
     25 H         142.6279  141.6763  171.0606 H       1  UNL1        0.1822
     26 H         139.8503  141.5676  171.9313 H       1  UNL1        0.2414
     27 N         138.2588  142.5897  164.2818 N.pl3   1  UNL1       -0.2962
     28 H         137.7593  142.7957  165.1048 H       1  UNL1        0.1537
     29 C         138.3160  141.1800  163.7723 C.ar    1  UNL1        0.0780
     30 C         138.0826  140.8983  162.3176 C.ar    1  UNL1        0.0170
     31 C         138.1399  139.4886  161.8081 C.ar    1  UNL1        0.0023
     32 C         138.4306  138.3608  162.7533 C.ar    1  UNL1        0.0138
     33 C         138.6641  138.6425  164.2080 C.ar    1  UNL1        0.0863
     34 CL        138.9548  137.5146  165.1531 Cl      1  UNL1       -0.0799
     35 C         138.6068  140.0521  164.7174 C.ar    1  UNL1        0.1639
     36 F         138.8402  140.3339  166.1722 F       1  UNL1       -0.2020
@<TRIPOS>BOND
     1    21    22    2
     2    22    20    1
     3    20    19    1
     4    19    18    1
     5    18    17    1
     6    17    16    1
     7    16    15    1
     8    15    11    1
     9    11    12    2
    10    11    13   am
    11    13     1    1
    12     1     2   ar
    13     2     3   ar
    14     3     4   ar
    15     4     5   ar
    16     5     6   ar
    17     6     7   ar
    18     7     8   ar
    19     8    27    1
    20    27    29    1
    21    29    30   ar
    22    30    31   ar
    23    31    32   ar
    24    32    33   ar
    25    33    34    1
    26    33    35   ar
    27    35    36    1
    28     8     9   ar
    29     9    10   ar
    30    22    23   am
    31    23    24    1
    32    10     1   ar
    33     9     4   ar
    34    35    29   ar
    35    13    14    1
    36    27    28    1
    37    23    25    1
    38    24    26    1
@<TRIPOS>MOLECULE
*****
 36 38 0 0 0
SMALL
GASTEIGER

@<TRIPOS>ATOM
      1 C         142.2200  140.0694  166.3078 C.ar    1  UNL1        0.0504
      2 C         143.0872  138.9416  165.8326 C.ar    1  UNL1        0.0147
      3 C         143.9581  139.1227  164.6248 C.ar    1  UNL1        0.0014
      4 C         143.9618  140.4316  163.8923 C.ar    1  UNL1        0.0043
      5 C         144.8327  140.6128  162.6845 C.ar    1  UNL1        0.0208
      6 C         144.8363  141.9217  161.9519 C.ar    1  UNL1        0.1003
      7 N         143.9690  143.0496  162.4272 N.ar    1  UNL1       -0.2291
      8 C         143.0981  142.8684  163.6350 C.ar    1  UNL1        0.1322
      9 C         143.0945  141.5594  164.3675 C.ar    1  UNL1        0.0330
     10 C         142.2236  141.3783  165.5753 C.ar    1  UNL1        0.0174
     11 C         139.8713  140.1252  167.4170 C.2     1  UNL1        0.2261
     12 O         139.2642  140.5433  166.1105 O.2     1  UNL1       -0.2748
     13 N         141.3491  139.8883  167.5156 N.am    1  UNL1       -0.2839
     14 H         141.7475  139.6138  168.3731 H       1  UNL1        0.1549
     15 C         139.0004  139.9441  168.6248 C.3     1  UNL1        0.0854
     16 C         139.5246  140.2922  169.9865 C.3     1  UNL1        0.0096
     17 C         139.5477  141.7224  170.4381 C.3     1  UNL1        0.0005
     18 C         140.0141  142.7972  169.5016 C.3     1  UNL1        0.0005
     19 C         141.3999  143.3563  169.6320 C.3     1  UNL1        0.0096
     20 C         142.5592  142.6414  169.0036 C.3     1  UNL1        0.0871
     21 O         144.8453  142.6170  170.2379 O.2     1  UNL1       -0.2730
     22 C         143.5619  141.9348  169.8671 C.2     1  UNL1        0.2443
     23 N         143.2811  140.5461  170.3596 N.am    1  UNL1       -0.1970
     24 O         144.2837  139.8395  171.2230 O.3     1  UNL1       -0.2952
     25 H         142.4388  140.0984  170.1162 H       1  UNL1        0.1822
     26 H         145.0504  140.4162  171.3663 H       1  UNL1        0.2414
     27 N         142.2309  143.9962  164.1102 N.pl3   1  UNL1       -0.2962
     28 H         142.6399  144.7944  164.5163 H       1  UNL1        0.1537
     29 C         140.7403  143.9080  163.9667 C.ar    1  UNL1        0.0780
     30 C         139.8511  144.3521  165.0902 C.ar    1  UNL1        0.0170
     31 C         138.3607  144.2639  164.9467 C.ar    1  UNL1        0.0023
     32 C         137.7594  143.7316  163.6797 C.ar    1  UNL1        0.0138
     33 C         138.6485  143.2875  162.5563 C.ar    1  UNL1        0.0863
     34 CL        138.0472  142.7553  161.2894 Cl      1  UNL1       -0.0799
     35 C         140.1390  143.3758  162.6998 C.ar    1  UNL1        0.1639
     36 F         141.0283  142.9317  161.5763 F       1  UNL1       -0.2020
@<TRIPOS>BOND
     1    21    22    2
     2    22    20    1
     3    20    19    1
     4    19    18    1
     5    18    17    1
     6    17    16    1
     7    16    15    1
     8    15    11    1
     9    11    12    2
    10    11    13   am
    11    13     1    1
    12     1     2   ar
    13     2     3   ar
    14     3     4   ar
    15     4     5   ar
    16     5     6   ar
    17     6     7   ar
    18     7     8   ar
    19     8    27    1
    20    27    29    1
    21    29    30   ar
    22    30    31   ar
    23    31    32   ar
    24    32    33   ar
    25    33    34    1
    26    33    35   ar
    27    35    36    1
    28     8     9   ar
    29     9    10   ar
    30    22    23   am
    31    23    24    1
    32    10     1   ar
    33     9     4   ar
    34    35    29   ar
    35    13    14    1
    36    27    28    1
    37    23    25    1
    38    24    26    1
@<TRIPOS>MOLECULE
*****
 36 38 0 0 0
SMALL
GASTEIGER

@<TRIPOS>ATOM
      1 C         142.3417  139.1533  162.9517 C.ar    1  UNL1        0.0504
      2 C         142.6385  138.1293  161.8966 C.ar    1  UNL1        0.0147
      3 C         142.7561  138.5449  160.4601 C.ar    1  UNL1        0.0014
      4 C         142.5768  139.9845  160.0788 C.ar    1  UNL1        0.0043
      5 C         142.6944  140.4001  158.6423 C.ar    1  UNL1        0.0208
      6 C         142.5151  141.8397  158.2610 C.ar    1  UNL1        0.1003
      7 N         142.2183  142.8637  159.3161 N.ar    1  UNL1       -0.2291
      8 C         142.1007  142.4481  160.7526 C.ar    1  UNL1        0.1322
      9 C         142.2800  141.0085  161.1339 C.ar    1  UNL1        0.0330
     10 C         142.1624  140.5929  162.5704 C.ar    1  UNL1        0.0174
     11 C         143.4241  138.7954  165.2863 C.2     1  UNL1        0.2261
     12 O         144.7418  139.2687  164.7479 O.2     1  UNL1       -0.2748
     13 N         142.2241  138.7377  164.3882 N.am    1  UNL1       -0.2839
     14 H         141.3593  138.4271  164.7416 H       1  UNL1        0.1549
     15 C         143.3066  138.3798  166.7228 C.3     1  UNL1        0.0854
     16 C         142.8196  139.3591  167.7494 C.3     1  UNL1        0.0096
     17 C         141.6999  140.3000  167.4166 C.3     1  UNL1        0.0005
     18 C         141.9841  141.7564  167.1972 C.3     1  UNL1        0.0005
     19 C         142.5229  142.2250  165.8781 C.3     1  UNL1        0.0096
     20 C         143.9378  142.7129  165.7765 C.3     1  UNL1        0.0871
     21 O         144.1557  143.7515  163.4050 O.2     1  UNL1       -0.2730
     22 C         144.6175  142.7694  164.4406 C.2     1  UNL1        0.2443
     23 N         145.7589  141.8438  164.1401 N.am    1  UNL1       -0.1970
     24 O         146.4387  141.9002  162.8041 O.3     1  UNL1       -0.2952
     25 H         146.0620  141.1992  164.8197 H       1  UNL1        0.1822
     26 H         146.0208  142.5839  162.2574 H       1  UNL1        0.2414
     27 N         141.8039  143.4721  161.8077 N.pl3   1  UNL1       -0.2962
     28 H         142.5157  144.0749  162.1227 H       1  UNL1        0.1537
     29 C         140.4226  143.5776  162.3830 C.ar    1  UNL1        0.0780
     30 C         139.2575  142.9811  161.6505 C.ar    1  UNL1        0.0170
     31 C         137.8762  143.0866  162.2257 C.ar    1  UNL1        0.0023
     32 C         137.6601  143.7887  163.5336 C.ar    1  UNL1        0.0138
     33 C         138.8252  144.3852  164.2661 C.ar    1  UNL1        0.0863
     34 CL        138.6090  145.0872  165.5739 Cl      1  UNL1       -0.0799
     35 C         140.2064  144.2797  163.6908 C.ar    1  UNL1        0.1639
     36 F         141.3716  144.8762  164.4234 F       1  UNL1       -0.2020
@<TRIPOS>BOND
     1    21    22    2
     2    22    20    1
     3    20    19    1
     4    19    18    1
     5    18    17    1
     6    17    16    1
     7    16    15    1
     8    15    11    1
     9    11    12    2
    10    11    13   am
    11    13     1    1
    12     1     2   ar
    13     2     3   ar
    14     3     4   ar
    15     4     5   ar
    16     5     6   ar
    17     6     7   ar
    18     7     8   ar
    19     8    27    1
    20    27    29    1
    21    29    30   ar
    22    30    31   ar
    23    31    32   ar
    24    32    33   ar
    25    33    34    1
    26    33    35   ar
    27    35    36    1
    28     8     9   ar
    29     9    10   ar
    30    22    23   am
    31    23    24    1
    32    10     1   ar
    33     9     4   ar
    34    35    29   ar
    35    13    14    1
    36    27    28    1
    37    23    25    1
    38    24    26    1
@<TRIPOS>MOLECULE
*****
 36 38 0 0 0
SMALL
GASTEIGER

@<TRIPOS>ATOM
      1 C         141.3990  138.5480  163.4716 C.ar    1  UNL1        0.0504
      2 C         141.5998  137.6799  162.2649 C.ar    1  UNL1        0.0147
      3 C         142.3673  138.2004  161.0860 C.ar    1  UNL1        0.0014
      4 C         142.9340  139.5889  161.1137 C.ar    1  UNL1        0.0043
      5 C         143.7016  140.1094  159.9347 C.ar    1  UNL1        0.0208
      6 C         144.2683  141.4979  159.9624 C.ar    1  UNL1        0.1003
      7 N         144.0675  142.3660  161.1691 N.ar    1  UNL1       -0.2291
      8 C         143.2999  141.8456  162.3481 C.ar    1  UNL1        0.1322
      9 C         142.7332  140.4570  162.3204 C.ar    1  UNL1        0.0330
     10 C         141.9657  139.9365  163.4993 C.ar    1  UNL1        0.0174
     11 C         139.1420  138.1951  164.7092 C.2     1  UNL1        0.2261
     12 O         138.4200  138.8833  163.5888 O.2     1  UNL1       -0.2748
     13 N         140.6314  138.0275  164.6506 N.am    1  UNL1       -0.2839
     14 H         141.1052  137.5758  165.3860 H       1  UNL1        0.1549
     15 C         138.3745  137.6747  165.8882 C.3     1  UNL1        0.0854
     16 C         137.7486  138.6328  166.8579 C.3     1  UNL1        0.0096
     17 C         138.6123  139.4160  167.8016 C.3     1  UNL1        0.0005
     18 C         139.6205  140.3879  167.2644 C.3     1  UNL1        0.0005
     19 C         140.6981  140.9228  168.1603 C.3     1  UNL1        0.0096
     20 C         140.9200  140.3134  169.5129 C.3     1  UNL1        0.0871
     21 O         142.9606  138.8471  168.8527 O.2     1  UNL1       -0.2730
     22 C         142.2496  139.7084  169.8540 C.2     1  UNL1        0.2443
     23 N         142.8680  139.9648  171.1962 N.am    1  UNL1       -0.1970
     24 O         144.1976  139.3599  171.5373 O.3     1  UNL1       -0.2952
     25 H         142.4013  140.5302  171.8534 H       1  UNL1        0.1822
     26 H         144.5168  138.8360  170.7859 H       1  UNL1        0.2414
     27 N         143.0991  142.7136  163.5548 N.pl3   1  UNL1       -0.2962
     28 H         143.8221  142.8129  164.2156 H       1  UNL1        0.1537
     29 C         141.7966  143.4304  163.7547 C.ar    1  UNL1        0.0780
     30 C         140.9395  143.1109  164.9435 C.ar    1  UNL1        0.0170
     31 C         139.6371  143.8277  165.1434 C.ar    1  UNL1        0.0023
     32 C         139.1919  144.8640  164.1544 C.ar    1  UNL1        0.0138
     33 C         140.0490  145.1834  162.9656 C.ar    1  UNL1        0.0863
     34 CL        139.6037  146.2196  161.9767 Cl      1  UNL1       -0.0799
     35 C         141.3513  144.4666  162.7658 C.ar    1  UNL1        0.1639
     36 F         142.2085  144.7860  161.5769 F       1  UNL1       -0.2020
@<TRIPOS>BOND
     1    21    22    2
     2    22    20    1
     3    20    19    1
     4    19    18    1
     5    18    17    1
     6    17    16    1
     7    16    15    1
     8    15    11    1
     9    11    12    2
    10    11    13   am
    11    13     1    1
    12     1     2   ar
    13     2     3   ar
    14     3     4   ar
    15     4     5   ar
    16     5     6   ar
    17     6     7   ar
    18     7     8   ar
    19     8    27    1
    20    27    29    1
    21    29    30   ar
    22    30    31   ar
    23    31    32   ar
    24    32    33   ar
    25    33    34    1
    26    33    35   ar
    27    35    36    1
    28     8     9   ar
    29     9    10   ar
    30    22    23   am
    31    23    24    1
    32    10     1   ar
    33     9     4   ar
    34    35    29   ar
    35    13    14    1
    36    27    28    1
    37    23    25    1
    38    24    26    1
@<TRIPOS>MOLECULE
*****
 36 38 0 0 0
SMALL
GASTEIGER

@<TRIPOS>ATOM
      1 C         139.0640  138.8519  165.3139 C.ar    1  UNL1        0.0504
      2 C         138.0106  138.4248  166.2926 C.ar    1  UNL1        0.0147
      3 C         138.0390  138.9444  167.6995 C.ar    1  UNL1        0.0014
      4 C         139.1208  139.8911  168.1276 C.ar    1  UNL1        0.0043
      5 C         139.1492  140.4107  169.5345 C.ar    1  UNL1        0.0208
      6 C         140.2310  141.3575  169.9626 C.ar    1  UNL1        0.1003
      7 N         141.2844  141.7847  168.9839 N.ar    1  UNL1       -0.2291
      8 C         141.2560  141.2651  167.5771 C.ar    1  UNL1        0.1322
      9 C         140.1742  140.3183  167.1489 C.ar    1  UNL1        0.0330
     10 C         140.1457  139.7987  165.7421 C.ar    1  UNL1        0.0174
     11 C         138.3344  139.1112  162.8339 C.2     1  UNL1        0.2261
     12 O         137.6616  140.4097  163.1676 O.2     1  UNL1       -0.2748
     13 N         139.0355  138.3323  163.9071 N.am    1  UNL1       -0.2839
     14 H         139.4771  137.4801  163.6881 H       1  UNL1        0.1549
     15 C         138.3060  138.5916  161.4271 C.3     1  UNL1        0.0854
     16 C         139.5345  137.9693  160.8325 C.3     1  UNL1        0.0096
     17 C         140.6267  138.8401  160.2857 C.3     1  UNL1        0.0005
     18 C         140.8426  140.2140  160.8475 C.3     1  UNL1        0.0005
     19 C         140.4065  141.4197  160.0691 C.3     1  UNL1        0.0096
     20 C         139.0073  141.9405  160.2145 C.3     1  UNL1        0.0871
     21 O         139.6109  144.4311  160.6416 O.2     1  UNL1       -0.2730
     22 C         138.7589  143.2321  160.9357 C.2     1  UNL1        0.2443
     23 N         137.6585  143.3246  161.9509 N.am    1  UNL1       -0.1970
     24 O         137.4101  144.6162  162.6720 O.3     1  UNL1       -0.2952
     25 H         137.0994  142.5377  162.1438 H       1  UNL1        0.1822
     26 H         138.0438  145.2841  162.3666 H       1  UNL1        0.2414
     27 N         142.3094  141.6922  166.5984 N.pl3   1  UNL1       -0.2962
     28 H         143.1892  141.2504  166.5980 H       1  UNL1        0.1537
     29 C         142.0223  142.7926  165.6201 C.ar    1  UNL1        0.0780
     30 C         140.6289  143.3312  165.4848 C.ar    1  UNL1        0.0170
     31 C         140.3419  144.4315  164.5066 C.ar    1  UNL1        0.0023
     32 C         141.4483  144.9932  163.6637 C.ar    1  UNL1        0.0138
     33 C         142.8417  144.4546  163.7991 C.ar    1  UNL1        0.0863
     34 CL        143.9481  145.0163  162.9562 Cl      1  UNL1       -0.0799
     35 C         143.1287  143.3543  164.7773 C.ar    1  UNL1        0.1639
     36 F         144.5221  142.8157  164.9126 F       1  UNL1       -0.2020
@<TRIPOS>BOND
     1    21    22    2
     2    22    20    1
     3    20    19    1
     4    19    18    1
     5    18    17    1
     6    17    16    1
     7    16    15    1
     8    15    11    1
     9    11    12    2
    10    11    13   am
    11    13     1    1
    12     1     2   ar
    13     2     3   ar
    14     3     4   ar
    15     4     5   ar
    16     5     6   ar
    17     6     7   ar
    18     7     8   ar
    19     8    27    1
    20    27    29    1
    21    29    30   ar
    22    30    31   ar
    23    31    32   ar
    24    32    33   ar
    25    33    34    1
    26    33    35   ar
    27    35    36    1
    28     8     9   ar
    29     9    10   ar
    30    22    23   am
    31    23    24    1
    32    10     1   ar
    33     9     4   ar
    34    35    29   ar
    35    13    14    1
    36    27    28    1
    37    23    25    1
    38    24    26    1
