@<TRIPOS>MOLECULE
*****
 30 34 0 0 0
SMALL
GASTEIGER

@<TRIPOS>ATOM
      1 C         141.4518  142.0640  166.2116 C.2     1  UNL1        0.0020
      2 C         140.9647  142.5201  167.5551 C.2     1  UNL1        0.0130
      3 C         141.2554  141.6992  168.7764 C.3     1  UNL1        0.1542
      4 C         140.4777  142.9760  168.8985 C.3     1  UNL1        0.0614
      5 C         139.9907  143.4319  170.2419 C.3     1  UNL1        0.0725
      6 N         140.2814  142.6111  171.4633 N.3     1  UNL1       -0.2972
      7 C         141.0591  141.3343  171.3412 C.3     1  UNL1        0.0725
      8 C         141.5461  140.8784  169.9978 C.3     1  UNL1        0.0614
      9 O         142.0332  140.4224  168.6543 O.3     1  UNL1       -0.4785
     10 C         142.5202  139.9664  167.3109 C.ar    1  UNL1        0.1386
     11 C         143.2980  138.6896  167.1887 C.ar    1  UNL1        0.0369
     12 C         143.7850  138.2337  165.8453 C.ar    1  UNL1        0.0031
     13 C         143.4943  139.0545  164.6239 C.ar    1  UNL1        0.0002
     14 C         142.7165  140.3313  164.7460 C.ar    1  UNL1        0.0030
     15 C         142.2295  140.7873  166.0895 C.ar    1  UNL1        0.0338
     16 H         139.3808  142.3690  171.8765 H       1  UNL1        0.1233
     17 C         140.5797  144.5265  162.5475 C.ar    1  UNL1        0.0536
     18 C         139.6335  143.4393  162.9631 C.ar    1  UNL1        0.0045
     19 C         139.9242  142.6184  164.1844 C.ar    1  UNL1        0.0001
     20 C         141.1611  142.8849  164.9902 C.ar    1  UNL1       -0.0001
     21 C         142.1072  143.9721  164.5746 C.ar    1  UNL1        0.0001
     22 C         141.8165  144.7929  163.3532 C.ar    1  UNL1        0.0045
     23 O         139.2911  146.4653  161.3938 O.2     1  UNL1       -0.2699
     24 C         140.2890  145.3474  161.3261 C.2     1  UNL1        0.2490
     25 N         140.9961  145.0503  160.0371 N.am    1  UNL1       -0.2761
     26 C         141.9939  143.9324  159.9693 C.3     1  UNL1        0.0937
     27 C         142.7011  143.6353  158.6803 C.3     1  UNL1        0.0216
     28 C         142.4104  144.4561  157.4589 C.3     1  UNL1        0.0035
     29 C         141.4125  145.5740  157.5266 C.3     1  UNL1        0.0216
     30 C         140.7054  145.8711  158.8157 C.3     1  UNL1        0.0937
@<TRIPOS>BOND
     1    23    24    2
     2    24    17    1
     3    17    18   ar
     4    18    19   ar
     5    19    20   ar
     6    20     1    1
     7     1     2    2
     8     2     3    1
     9     3     4    1
    10     4     5    1
    11     5     6    1
    12     6     7    1
    13     7     8    1
    14     3     9    1
    15     9    10    1
    16    10    11   ar
    17    11    12   ar
    18    12    13   ar
    19    13    14   ar
    20    14    15   ar
    21    20    21   ar
    22    21    22   ar
    23    24    25   am
    24    25    26    1
    25    26    27    1
    26    27    28    1
    27    28    29    1
    28    29    30    1
    29    22    17   ar
    30    30    25    1
    31    15     1    1
    32     8     3    1
    33    15    10   ar
    34     6    16    1
@<TRIPOS>MOLECULE
*****
 30 34 0 0 0
SMALL
GASTEIGER

@<TRIPOS>ATOM
      1 C         139.8181  141.9494  165.8066 C.2     1  UNL1        0.0020
      2 C         140.1983  142.4534  167.1674 C.2     1  UNL1        0.0130
      3 C         140.1762  141.5240  168.3445 C.3     1  UNL1        0.1542
      4 C         140.5785  142.9573  168.5280 C.3     1  UNL1        0.0614
      5 C         140.9587  143.4613  169.8887 C.3     1  UNL1        0.0725
      6 N         140.9366  142.5319  171.0659 N.3     1  UNL1       -0.2972
      7 C         140.5343  141.0985  170.8824 C.3     1  UNL1        0.0725
      8 C         140.1542  140.5946  169.5217 C.3     1  UNL1        0.0614
      9 O         139.7740  140.0906  168.1610 O.3     1  UNL1       -0.4785
     10 C         139.3938  139.5867  166.8003 C.ar    1  UNL1        0.1386
     11 C         138.9915  138.1533  166.6167 C.ar    1  UNL1        0.0369
     12 C         138.6113  137.6494  165.2561 C.ar    1  UNL1        0.0031
     13 C         138.6334  138.5788  164.0789 C.ar    1  UNL1        0.0002
     14 C         139.0356  140.0121  164.2624 C.ar    1  UNL1        0.0030
     15 C         139.4159  140.5161  165.6231 C.ar    1  UNL1        0.0338
     16 H         140.2918  142.9338  171.7464 H       1  UNL1        0.1233
     17 C         139.8843  144.7377  162.2751 C.ar    1  UNL1        0.0536
     18 C         138.5743  144.2893  162.8523 C.ar    1  UNL1        0.0045
     19 C         138.5523  143.3599  164.0294 C.ar    1  UNL1        0.0001
     20 C         139.8402  142.8788  164.6295 C.ar    1  UNL1       -0.0001
     21 C         141.1501  143.3272  164.0524 C.ar    1  UNL1        0.0001
     22 C         141.1721  144.2566  162.8752 C.ar    1  UNL1        0.0045
     23 O         139.6113  147.1254  161.2882 O.2     1  UNL1       -0.2699
     24 C         139.9064  145.6671  161.0980 C.2     1  UNL1        0.2490
     25 N         140.2236  145.1382  159.7306 N.am    1  UNL1       -0.2761
     26 C         140.5187  143.6798  159.5404 C.3     1  UNL1        0.0937
     27 C         140.8358  143.1509  158.1731 C.3     1  UNL1        0.0216
     28 C         140.8579  144.0803  156.9959 C.3     1  UNL1        0.0035
     29 C         140.5628  145.5386  157.1861 C.3     1  UNL1        0.0216
     30 C         140.2456  146.0676  158.5535 C.3     1  UNL1        0.0937
@<TRIPOS>BOND
     1    23    24    2
     2    24    17    1
     3    17    18   ar
     4    18    19   ar
     5    19    20   ar
     6    20     1    1
     7     1     2    2
     8     2     3    1
     9     3     4    1
    10     4     5    1
    11     5     6    1
    12     6     7    1
    13     7     8    1
    14     3     9    1
    15     9    10    1
    16    10    11   ar
    17    11    12   ar
    18    12    13   ar
    19    13    14   ar
    20    14    15   ar
    21    20    21   ar
    22    21    22   ar
    23    24    25   am
    24    25    26    1
    25    26    27    1
    26    27    28    1
    27    28    29    1
    28    29    30    1
    29    22    17   ar
    30    30    25    1
    31    15     1    1
    32     8     3    1
    33    15    10   ar
    34     6    16    1
@<TRIPOS>MOLECULE
*****
 30 34 0 0 0
SMALL
GASTEIGER

@<TRIPOS>ATOM
      1 C         141.5037  140.9550  166.3201 C.2     1  UNL1        0.0020
      2 C         142.1285  141.5809  167.5317 C.2     1  UNL1        0.0130
      3 C         141.4896  141.4100  168.8780 C.3     1  UNL1        0.1542
      4 C         142.7533  142.2068  168.7432 C.3     1  UNL1        0.0614
      5 C         143.3780  142.8327  169.9548 C.3     1  UNL1        0.0725
      6 N         142.7391  142.6618  171.3011 N.3     1  UNL1       -0.2972
      7 C         141.4754  141.8651  171.4359 C.3     1  UNL1        0.0725
      8 C         140.8506  141.2392  170.2243 C.3     1  UNL1        0.0614
      9 O         140.2258  140.6133  169.0127 O.3     1  UNL1       -0.4785
     10 C         139.6010  139.9874  167.8012 C.ar    1  UNL1        0.1386
     11 C         138.3373  139.1906  167.9359 C.ar    1  UNL1        0.0369
     12 C         137.7125  138.5647  166.7243 C.ar    1  UNL1        0.0031
     13 C         138.3515  138.7355  165.3780 C.ar    1  UNL1        0.0002
     14 C         139.6152  139.5323  165.2433 C.ar    1  UNL1        0.0030
     15 C         140.2400  140.1582  166.4549 C.ar    1  UNL1        0.0338
     16 H         142.5357  143.5979  171.6514 H       1  UNL1        0.1233
     17 C         143.4206  141.4675  162.2812 C.ar    1  UNL1        0.0536
     18 C         142.2862  142.3591  162.6916 C.ar    1  UNL1        0.0045
     19 C         141.6472  142.1882  164.0379 C.ar    1  UNL1        0.0001
     20 C         142.1427  141.1258  164.9738 C.ar    1  UNL1       -0.0001
     21 C         143.2770  140.2343  164.5634 C.ar    1  UNL1        0.0001
     22 C         143.9159  140.4052  163.2171 C.ar    1  UNL1        0.0045
     23 O         145.1499  142.6509  160.7452 O.2     1  UNL1       -0.2699
     24 C         144.0595  141.6384  160.9349 C.2     1  UNL1        0.2490
     25 N         143.6082  140.7967  159.7782 N.am    1  UNL1       -0.2761
     26 C         142.5178  139.7841  159.9679 C.3     1  UNL1        0.0937
     27 C         142.0665  138.9425  158.8112 C.3     1  UNL1        0.0216
     28 C         142.7054  139.1133  157.4649 C.3     1  UNL1        0.0035
     29 C         143.7957  140.1258  157.2752 C.3     1  UNL1        0.0216
     30 C         144.2471  140.9676  158.4319 C.3     1  UNL1        0.0937
@<TRIPOS>BOND
     1    23    24    2
     2    24    17    1
     3    17    18   ar
     4    18    19   ar
     5    19    20   ar
     6    20     1    1
     7     1     2    2
     8     2     3    1
     9     3     4    1
    10     4     5    1
    11     5     6    1
    12     6     7    1
    13     7     8    1
    14     3     9    1
    15     9    10    1
    16    10    11   ar
    17    11    12   ar
    18    12    13   ar
    19    13    14   ar
    20    14    15   ar
    21    20    21   ar
    22    21    22   ar
    23    24    25   am
    24    25    26    1
    25    26    27    1
    26    27    28    1
    27    28    29    1
    28    29    30    1
    29    22    17   ar
    30    30    25    1
    31    15     1    1
    32     8     3    1
    33    15    10   ar
    34     6    16    1
@<TRIPOS>MOLECULE
*****
 30 34 0 0 0
SMALL
GASTEIGER

@<TRIPOS>ATOM
      1 C         141.0866  140.2344  161.6898 C.2     1  UNL1        0.0020
      2 C         142.4328  140.8947  161.7352 C.2     1  UNL1        0.0130
      3 C         143.3751  140.5997  162.8644 C.3     1  UNL1        0.1542
      4 C         143.7788  141.5549  161.7807 C.3     1  UNL1        0.0614
      5 C         145.1249  142.2151  161.8261 C.3     1  UNL1        0.0725
      6 N         146.0672  141.9201  162.9553 N.3     1  UNL1       -0.2972
      7 C         145.6635  140.9649  164.0390 C.3     1  UNL1        0.0725
      8 C         144.3174  140.3047  163.9936 C.3     1  UNL1        0.0614
      9 O         142.9712  139.6444  163.9481 O.3     1  UNL1       -0.4785
     10 C         141.6251  138.9842  163.9027 C.ar    1  UNL1        0.1386
     11 C         141.2213  138.0289  164.9864 C.ar    1  UNL1        0.0369
     12 C         139.8752  137.3687  164.9410 C.ar    1  UNL1        0.0031
     13 C         138.9329  137.6637  163.8118 C.ar    1  UNL1        0.0002
     14 C         139.3367  138.6189  162.7281 C.ar    1  UNL1        0.0030
     15 C         140.6828  139.2792  162.7735 C.ar    1  UNL1        0.0338
     16 H         146.2713  142.8107  163.4088 H       1  UNL1        0.1233
     17 C         138.2597  141.1194  158.3023 C.ar    1  UNL1        0.0536
     18 C         139.3207  140.0716  158.1394 C.ar    1  UNL1        0.0045
     19 C         140.2630  139.7766  159.2686 C.ar    1  UNL1        0.0001
     20 C         140.1443  140.5294  160.5606 C.ar    1  UNL1       -0.0001
     21 C         139.0833  141.5771  160.7234 C.ar    1  UNL1        0.0001
     22 C         138.1410  141.8721  159.5942 C.ar    1  UNL1        0.0045
     23 O         136.1478  140.5107  156.9167 O.2     1  UNL1       -0.2699
     24 C         137.3174  141.4144  157.1731 C.2     1  UNL1        0.2490
     25 N         137.5446  142.6129  156.3003 N.am    1  UNL1       -0.2761
     26 C         138.7141  143.5166  156.5567 C.3     1  UNL1        0.0937
     27 C         138.9414  144.7151  155.6839 C.3     1  UNL1        0.0216
     28 C         137.9990  145.0101  154.5547 C.3     1  UNL1        0.0035
     29 C         136.8295  144.1066  154.2983 C.3     1  UNL1        0.0216
     30 C         136.6023  142.9079  155.1711 C.3     1  UNL1        0.0937
@<TRIPOS>BOND
     1    23    24    2
     2    24    17    1
     3    17    18   ar
     4    18    19   ar
     5    19    20   ar
     6    20     1    1
     7     1     2    2
     8     2     3    1
     9     3     4    1
    10     4     5    1
    11     5     6    1
    12     6     7    1
    13     7     8    1
    14     3     9    1
    15     9    10    1
    16    10    11   ar
    17    11    12   ar
    18    12    13   ar
    19    13    14   ar
    20    14    15   ar
    21    20    21   ar
    22    21    22   ar
    23    24    25   am
    24    25    26    1
    25    26    27    1
    26    27    28    1
    27    28    29    1
    28    29    30    1
    29    22    17   ar
    30    30    25    1
    31    15     1    1
    32     8     3    1
    33    15    10   ar
    34     6    16    1
@<TRIPOS>MOLECULE
*****
 30 34 0 0 0
SMALL
GASTEIGER

@<TRIPOS>ATOM
      1 C         140.1999  142.1886  160.8423 C.2     1  UNL1        0.0020
      2 C         140.7617  140.7982  160.8827 C.2     1  UNL1        0.0130
      3 C         140.6015  139.9602  162.1165 C.3     1  UNL1        0.1542
      4 C         141.3234  139.4080  160.9232 C.3     1  UNL1        0.0614
      5 C         141.8851  138.0178  160.9637 C.3     1  UNL1        0.0725
      6 N         141.7249  137.1798  162.1975 N.3     1  UNL1       -0.2972
      7 C         141.0030  137.7320  163.3907 C.3     1  UNL1        0.0725
      8 C         140.4413  139.1222  163.3502 C.3     1  UNL1        0.0614
      9 O         139.8795  140.5125  163.3097 O.3     1  UNL1       -0.4785
     10 C         139.3178  141.9028  163.2692 C.ar    1  UNL1        0.1386
     11 C         138.5959  142.4551  164.4625 C.ar    1  UNL1        0.0369
     12 C         138.0342  143.8453  164.4220 C.ar    1  UNL1        0.0031
     13 C         138.1944  144.6833  163.1883 C.ar    1  UNL1        0.0002
     14 C         138.9163  144.1311  161.9951 C.ar    1  UNL1        0.0030
     15 C         139.4780  142.7408  162.0355 C.ar    1  UNL1        0.0338
     16 H         142.6640  136.9329  162.5098 H       1  UNL1        0.1233
     17 C         140.6806  144.7026  157.1411 C.ar    1  UNL1        0.0536
     18 C         141.6792  144.8095  158.2553 C.ar    1  UNL1        0.0045
     19 C         141.5190  143.9715  159.4890 C.ar    1  UNL1        0.0001
     20 C         140.3601  143.0266  159.6086 C.ar    1  UNL1       -0.0001
     21 C         139.3616  142.9196  158.4944 C.ar    1  UNL1        0.0001
     22 C         139.5218  143.7576  157.2607 C.ar    1  UNL1        0.0045
     23 O         141.7175  145.0656  154.7867 O.2     1  UNL1       -0.2699
     24 C         140.8408  145.5406  155.9074 C.2     1  UNL1        0.2490
     25 N         140.1242  146.8534  155.7942 N.am    1  UNL1       -0.2761
     26 C         139.2474  147.3284  156.9149 C.3     1  UNL1        0.0937
     27 C         138.5309  148.6413  156.8017 C.3     1  UNL1        0.0216
     28 C         138.6911  149.4793  155.5680 C.3     1  UNL1        0.0035
     29 C         139.5678  149.0044  154.4474 C.3     1  UNL1        0.0216
     30 C         140.2844  147.6914  154.5605 C.3     1  UNL1        0.0937
@<TRIPOS>BOND
     1    23    24    2
     2    24    17    1
     3    17    18   ar
     4    18    19   ar
     5    19    20   ar
     6    20     1    1
     7     1     2    2
     8     2     3    1
     9     3     4    1
    10     4     5    1
    11     5     6    1
    12     6     7    1
    13     7     8    1
    14     3     9    1
    15     9    10    1
    16    10    11   ar
    17    11    12   ar
    18    12    13   ar
    19    13    14   ar
    20    14    15   ar
    21    20    21   ar
    22    21    22   ar
    23    24    25   am
    24    25    26    1
    25    26    27    1
    26    27    28    1
    27    28    29    1
    28    29    30    1
    29    22    17   ar
    30    30    25    1
    31    15     1    1
    32     8     3    1
    33    15    10   ar
    34     6    16    1
@<TRIPOS>MOLECULE
*****
 30 34 0 0 0
SMALL
GASTEIGER

@<TRIPOS>ATOM
      1 C         142.1558  142.5319  162.0058 C.2     1  UNL1        0.0020
      2 C         142.8726  141.8990  160.8500 C.2     1  UNL1        0.0130
      3 C         142.7776  142.5097  159.4833 C.3     1  UNL1        0.1542
      4 C         143.5892  141.2661  159.6942 C.3     1  UNL1        0.0614
      5 C         144.3059  140.6333  158.5385 C.3     1  UNL1        0.0725
      6 N         144.2109  141.2441  157.1718 N.3     1  UNL1       -0.2972
      7 C         143.3992  142.4877  156.9608 C.3     1  UNL1        0.0725
      8 C         142.6826  143.1205  158.1166 C.3     1  UNL1        0.0614
      9 O         141.9659  143.7535  159.2724 O.3     1  UNL1       -0.4785
     10 C         141.2492  144.3863  160.4282 C.ar    1  UNL1        0.1386
     11 C         140.4375  145.6300  160.2172 C.ar    1  UNL1        0.0369
     12 C         139.7208  146.2629  161.3730 C.ar    1  UNL1        0.0031
     13 C         139.8158  145.6521  162.7397 C.ar    1  UNL1        0.0002
     14 C         140.6275  144.4084  162.9507 C.ar    1  UNL1        0.0030
     15 C         141.3442  143.7755  161.7949 C.ar    1  UNL1        0.0338
     16 H         143.8209  140.5300  156.5566 H       1  UNL1        0.1233
     17 C         142.4408  140.6995  166.1060 C.ar    1  UNL1        0.0536
     18 C         141.3393  140.2870  165.1750 C.ar    1  UNL1        0.0045
     19 C         141.2443  140.8978  163.8083 C.ar    1  UNL1        0.0001
     20 C         142.2508  141.9211  163.3725 C.ar    1  UNL1       -0.0001
     21 C         143.3523  142.3335  164.3034 C.ar    1  UNL1        0.0001
     22 C         143.4473  141.7228  165.6702 C.ar    1  UNL1        0.0045
     23 O         143.2795  138.8008  167.6686 O.2     1  UNL1       -0.2699
     24 C         142.5358  140.0887  167.4727 C.2     1  UNL1        0.2490
     25 N         141.8872  140.7658  168.6435 N.am    1  UNL1       -0.2761
     26 C         141.1435  142.0537  168.4476 C.3     1  UNL1        0.0937
     27 C         140.4948  142.7307  169.6184 C.3     1  UNL1        0.0216
     28 C         140.5898  142.1199  170.9851 C.3     1  UNL1        0.0035
     29 C         141.3334  140.8321  171.1810 C.3     1  UNL1        0.0216
     30 C         141.9822  140.1550  170.0102 C.3     1  UNL1        0.0937
@<TRIPOS>BOND
     1    23    24    2
     2    24    17    1
     3    17    18   ar
     4    18    19   ar
     5    19    20   ar
     6    20     1    1
     7     1     2    2
     8     2     3    1
     9     3     4    1
    10     4     5    1
    11     5     6    1
    12     6     7    1
    13     7     8    1
    14     3     9    1
    15     9    10    1
    16    10    11   ar
    17    11    12   ar
    18    12    13   ar
    19    13    14   ar
    20    14    15   ar
    21    20    21   ar
    22    21    22   ar
    23    24    25   am
    24    25    26    1
    25    26    27    1
    26    27    28    1
    27    28    29    1
    28    29    30    1
    29    22    17   ar
    30    30    25    1
    31    15     1    1
    32     8     3    1
    33    15    10   ar
    34     6    16    1
@<TRIPOS>MOLECULE
*****
 30 34 0 0 0
SMALL
GASTEIGER

@<TRIPOS>ATOM
      1 C         141.6403  140.1676  163.6918 C.2     1  UNL1        0.0020
      2 C         140.5201  139.5808  164.4986 C.2     1  UNL1        0.0130
      3 C         140.3288  139.9939  165.9278 C.3     1  UNL1        0.1542
      4 C         139.3999  138.9940  165.3053 C.3     1  UNL1        0.0614
      5 C         138.2798  138.4073  166.1121 C.3     1  UNL1        0.0725
      6 N         138.0884  138.8203  167.5413 N.3     1  UNL1       -0.2972
      7 C         139.0173  139.8201  168.1638 C.3     1  UNL1        0.0725
      8 C         140.1375  140.4069  167.3571 C.3     1  UNL1        0.0614
      9 O         141.2577  140.9937  166.5503 O.3     1  UNL1       -0.4785
     10 C         142.3779  141.5805  165.7436 C.ar    1  UNL1        0.1386
     11 C         143.3068  142.5804  166.3661 C.ar    1  UNL1        0.0369
     12 C         144.4270  143.1671  165.5593 C.ar    1  UNL1        0.0031
     13 C         144.6183  142.7541  164.1301 C.ar    1  UNL1        0.0002
     14 C         143.6894  141.7543  163.5076 C.ar    1  UNL1        0.0030
     15 C         142.5692  141.1674  164.3143 C.ar    1  UNL1        0.0338
     16 H         138.1495  137.9716  168.1038 H       1  UNL1        0.1233
     17 C         142.2143  138.9285  159.4040 C.ar    1  UNL1        0.0536
     18 C         141.2958  140.0661  159.7394 C.ar    1  UNL1        0.0045
     19 C         141.1045  140.4791  161.1687 C.ar    1  UNL1        0.0001
     20 C         141.8316  139.7546  162.2625 C.ar    1  UNL1       -0.0001
     21 C         142.7500  138.6171  161.9271 C.ar    1  UNL1        0.0001
     22 C         142.9413  138.2040  160.4978 C.ar    1  UNL1        0.0045
     23 O         141.5778  137.4056  157.3976 O.2     1  UNL1       -0.2699
     24 C         142.4056  138.5155  157.9748 C.2     1  UNL1        0.2490
     25 N         143.4246  139.2122  157.1227 N.am    1  UNL1       -0.2761
     26 C         144.2524  140.3221  157.6999 C.3     1  UNL1        0.0937
     27 C         145.2714  141.0188  156.8478 C.3     1  UNL1        0.0216
     28 C         145.4627  140.6058  155.4185 C.3     1  UNL1        0.0035
     29 C         144.6350  139.4960  154.8413 C.3     1  UNL1        0.0216
     30 C         143.6159  138.7992  155.6934 C.3     1  UNL1        0.0937
@<TRIPOS>BOND
     1    23    24    2
     2    24    17    1
     3    17    18   ar
     4    18    19   ar
     5    19    20   ar
     6    20     1    1
     7     1     2    2
     8     2     3    1
     9     3     4    1
    10     4     5    1
    11     5     6    1
    12     6     7    1
    13     7     8    1
    14     3     9    1
    15     9    10    1
    16    10    11   ar
    17    11    12   ar
    18    12    13   ar
    19    13    14   ar
    20    14    15   ar
    21    20    21   ar
    22    21    22   ar
    23    24    25   am
    24    25    26    1
    25    26    27    1
    26    27    28    1
    27    28    29    1
    28    29    30    1
    29    22    17   ar
    30    30    25    1
    31    15     1    1
    32     8     3    1
    33    15    10   ar
    34     6    16    1
@<TRIPOS>MOLECULE
*****
 30 34 0 0 0
SMALL
GASTEIGER

@<TRIPOS>ATOM
      1 C         142.2570  141.6373  163.4003 C.2     1  UNL1        0.0020
      2 C         142.7722  140.6107  164.3651 C.2     1  UNL1        0.0130
      3 C         142.2945  140.6113  165.7870 C.3     1  UNL1        0.1542
      4 C         143.2874  139.5842  165.3298 C.3     1  UNL1        0.0614
      5 C         143.8027  138.5578  166.2946 C.3     1  UNL1        0.0725
      6 N         143.3249  138.5584  167.7165 N.3     1  UNL1       -0.2972
      7 C         142.3319  139.5855  168.1736 C.3     1  UNL1        0.0725
      8 C         141.8167  140.6120  167.2088 C.3     1  UNL1        0.0614
      9 O         141.3014  141.6385  166.2440 O.3     1  UNL1       -0.4785
     10 C         140.7862  142.6650  165.2793 C.ar    1  UNL1        0.1386
     11 C         139.7932  143.6922  165.7363 C.ar    1  UNL1        0.0369
     12 C         139.2779  144.7187  164.7716 C.ar    1  UNL1        0.0031
     13 C         139.7557  144.7180  163.3497 C.ar    1  UNL1        0.0002
     14 C         140.7487  143.6909  162.8926 C.ar    1  UNL1        0.0030
     15 C         141.2640  142.6644  163.8574 C.ar    1  UNL1        0.0338
     16 H         144.1513  138.6655  168.3047 H       1  UNL1        0.1233
     17 C         143.6902  141.6354  159.1346 C.ar    1  UNL1        0.0536
     18 C         142.4596  140.8655  159.5127 C.ar    1  UNL1        0.0045
     19 C         141.9818  140.8661  160.9346 C.ar    1  UNL1        0.0001
     20 C         142.7347  141.6366  161.9784 C.ar    1  UNL1       -0.0001
     21 C         143.9653  142.4065  161.6003 C.ar    1  UNL1        0.0001
     22 C         144.4430  142.4059  160.1785 C.ar    1  UNL1        0.0045
     23 O         145.1215  140.5765  157.2424 O.2     1  UNL1       -0.2699
     24 C         144.1680  141.6348  157.7128 C.2     1  UNL1        0.2490
     25 N         143.6924  142.6923  156.7613 N.am    1  UNL1       -0.2761
     26 C         142.7389  143.7505  157.2316 C.3     1  UNL1        0.0937
     27 C         142.2633  144.8080  156.2802 C.3     1  UNL1        0.0216
     28 C         142.7410  144.8074  154.8583 C.3     1  UNL1        0.0035
     29 C         143.6944  143.7493  154.3879 C.3     1  UNL1        0.0216
     30 C         144.1701  142.6917  155.3394 C.3     1  UNL1        0.0937
@<TRIPOS>BOND
     1    23    24    2
     2    24    17    1
     3    17    18   ar
     4    18    19   ar
     5    19    20   ar
     6    20     1    1
     7     1     2    2
     8     2     3    1
     9     3     4    1
    10     4     5    1
    11     5     6    1
    12     6     7    1
    13     7     8    1
    14     3     9    1
    15     9    10    1
    16    10    11   ar
    17    11    12   ar
    18    12    13   ar
    19    13    14   ar
    20    14    15   ar
    21    20    21   ar
    22    21    22   ar
    23    24    25   am
    24    25    26    1
    25    26    27    1
    26    27    28    1
    27    28    29    1
    28    29    30    1
    29    22    17   ar
    30    30    25    1
    31    15     1    1
    32     8     3    1
    33    15    10   ar
    34     6    16    1
@<TRIPOS>MOLECULE
*****
 30 34 0 0 0
SMALL
GASTEIGER

@<TRIPOS>ATOM
      1 C         140.4904  140.8398  163.3718 C.2     1  UNL1        0.0020
      2 C         141.3431  140.0152  164.2901 C.2     1  UNL1        0.0130
      3 C         141.5644  140.4570  165.7064 C.3     1  UNL1        0.1542
      4 C         142.1957  139.1907  165.2083 C.3     1  UNL1        0.0614
      5 C         143.0483  138.3662  166.1266 C.3     1  UNL1        0.0725
      6 N         143.2696  138.8080  167.5429 N.3     1  UNL1       -0.2972
      7 C         142.6383  140.0742  168.0409 C.3     1  UNL1        0.0725
      8 C         141.7857  140.8987  167.1227 C.3     1  UNL1        0.0614
      9 O         140.9330  141.7232  166.2044 O.3     1  UNL1       -0.4785
     10 C         140.0804  142.5477  165.2862 C.ar    1  UNL1        0.1386
     11 C         139.4490  143.8140  165.7843 C.ar    1  UNL1        0.0369
     12 C         138.5964  144.6385  164.8660 C.ar    1  UNL1        0.0031
     13 C         138.3751  144.1968  163.4497 C.ar    1  UNL1        0.0002
     14 C         139.0064  142.9306  162.9516 C.ar    1  UNL1        0.0030
     15 C         139.8591  142.1060  163.8699 C.ar    1  UNL1        0.0338
     16 H         144.2768  138.9135  167.6644 H       1  UNL1        0.1233
     17 C         139.8265  139.5147  159.1229 C.ar    1  UNL1        0.0536
     18 C         139.1280  138.8081  160.2468 C.ar    1  UNL1        0.0045
     19 C         139.3493  139.2498  161.6631 C.ar    1  UNL1        0.0001
     20 C         140.2691  140.3981  161.9555 C.ar    1  UNL1       -0.0001
     21 C         140.9675  141.1046  160.8317 C.ar    1  UNL1        0.0001
     22 C         140.7462  140.6629  159.4154 C.ar    1  UNL1        0.0045
     23 O         138.3928  139.5392  156.9563 O.2     1  UNL1       -0.2699
     24 C         139.6052  139.0730  157.7066 C.2     1  UNL1        0.2490
     25 N         140.5961  138.1650  157.0406 N.am    1  UNL1       -0.2761
     26 C         141.8085  137.6987  157.7909 C.3     1  UNL1        0.0937
     27 C         142.7994  136.7908  157.1249 C.3     1  UNL1        0.0216
     28 C         142.5781  136.3491  155.7086 C.3     1  UNL1        0.0035
     29 C         141.3658  136.8153  154.9583 C.3     1  UNL1        0.0216
     30 C         140.3748  137.7233  155.6243 C.3     1  UNL1        0.0937
@<TRIPOS>BOND
     1    23    24    2
     2    24    17    1
     3    17    18   ar
     4    18    19   ar
     5    19    20   ar
     6    20     1    1
     7     1     2    2
     8     2     3    1
     9     3     4    1
    10     4     5    1
    11     5     6    1
    12     6     7    1
    13     7     8    1
    14     3     9    1
    15     9    10    1
    16    10    11   ar
    17    11    12   ar
    18    12    13   ar
    19    13    14   ar
    20    14    15   ar
    21    20    21   ar
    22    21    22   ar
    23    24    25   am
    24    25    26    1
    25    26    27    1
    26    27    28    1
    27    28    29    1
    28    29    30    1
    29    22    17   ar
    30    30    25    1
    31    15     1    1
    32     8     3    1
    33    15    10   ar
    34     6    16    1
