@<TRIPOS>MOLECULE
*****
 42 47 0 0 0
SMALL
GASTEIGER

@<TRIPOS>ATOM
      1 C         140.1256  138.1767  164.2199 C.3     1  UNL1        0.0932
      2 C         139.8925  138.5799  162.7941 C.3     1  UNL1        0.0286
      3 C         138.8135  139.5670  162.4606 C.3     1  UNL1        0.0193
      4 C         137.9675  140.1511  163.5530 C.3     1  UNL1        0.0700
      5 C         138.2006  139.7479  164.9789 C.3     1  UNL1        0.0193
      6 C         139.2796  138.7607  165.3123 C.3     1  UNL1        0.0286
      7 C         138.5468  139.6137  163.7846 C.3     1  UNL1        0.1562
      8 O         139.5224  138.7211  164.0862 O.3     1  UNL1       -0.3572
      9 N         136.8885  141.1382  163.2195 N.3     1  UNL1       -0.2926
     10 H         136.0996  140.9301  163.8317 H       1  UNL1        0.1236
     11 C         137.1544  142.6095  163.3408 C.3     1  UNL1        0.1148
     12 C         138.2988  143.2288  162.5946 C.ar    1  UNL1        0.0722
     13 N         138.3158  143.2068  161.0948 N.ar    1  UNL1       -0.2308
     14 C         139.4603  143.8262  160.3487 C.ar    1  UNL1        0.1679
     15 C         140.5875  144.4675  161.1022 C.ar    1  UNL1        0.1664
     16 C         140.5705  144.4895  162.6020 C.ar    1  UNL1        0.0122
     17 C         141.6978  145.1309  163.3555 C.3     1  UNL1        0.0340
     18 C         139.4261  143.8702  163.3481 C.ar    1  UNL1       -0.0085
     19 O         141.7320  145.0869  160.3560 O.3     1  UNL1       -0.4631
     20 C         141.7491  145.0649  158.8563 C.3     1  UNL1        0.2898
     21 C         140.6217  144.4235  158.1027 C.2     1  UNL1        0.2718
     22 O         140.6388  144.4015  156.6030 O.2     1  UNL1       -0.2707
     23 N         139.4774  143.8042  158.8489 N.am    1  UNL1       -0.2639
     24 H         138.7375  143.3833  158.3543 H       1  UNL1        0.1565
     25 C         139.4090  143.8922  164.8479 C.3     1  UNL1        0.0233
     26 C         140.0861  142.8001  165.6217 C.3     1  UNL1        0.0047
     27 C         138.7148  145.0063  165.5738 C.3     1  UNL1        0.0047
     28 C         141.2045  137.1896  164.5534 C.3     1  UNL1        0.0320
     29 C         142.5105  137.6674  165.1159 C.3     1  UNL1        0.0327
     30 C         142.5937  141.1038  168.0200 C.ar    1  UNL1        0.2250
     31 C         143.1522  142.4300  167.5968 C.ar    1  UNL1        0.0593
     32 C         143.6830  142.6108  166.2056 C.ar    1  UNL1        0.0254
     33 C         143.6553  141.4653  165.2375 C.ar    1  UNL1        0.0990
     34 N         144.1861  141.6461  163.8463 N.ar    1  UNL1       -0.2400
     35 C         144.1584  140.5007  162.8783 C.ar    1  UNL1        0.1281
     36 C         143.5998  139.1744  163.3014 C.ar    1  UNL1        0.1566
     37 F         143.5721  138.0289  162.3334 F       1  UNL1       -0.2028
     38 C         143.0690  138.9936  164.6927 C.ar    1  UNL1        0.0261
     39 C         143.0968  140.1391  165.6607 C.ar    1  UNL1        0.1002
     40 N         142.5659  139.9584  167.0520 N.ar    1  UNL1       -0.2104
     41 C         141.8925  139.5438  169.9757 C.3     1  UNL1        0.2542
     42 O         142.0629  140.9230  169.4113 O.3     1  UNL1       -0.4561
@<TRIPOS>BOND
     1    41    42    1
     2    42    30    1
     3    30    31   ar
     4    31    32   ar
     5    32    33   ar
     6    33    34   ar
     7    34    35   ar
     8    35    36   ar
     9    36    37    1
    10    36    38   ar
    11    38    29    1
    12    29    28    1
    13    28     1    1
    14     1     2    1
    15     2     3    1
    16     3     4    1
    17     4     9    1
    18     9    11    1
    19    11    12    1
    20    12    13   ar
    21    13    14   ar
    22    14    15   ar
    23    15    16   ar
    24    16    17    1
    25    16    18   ar
    26    18    25    1
    27    25    26    1
    28    25    27    1
    29    15    19    1
    30    19    20    1
    31    20    21    1
    32    21    22    2
    33    21    23   am
    34     4     5    1
    35     5     6    1
    36     4     7    1
    37     7     8    1
    38    38    39   ar
    39    39    40   ar
    40    40    30   ar
    41    39    33   ar
    42     6     1    1
    43     8     1    1
    44    18    12   ar
    45    23    14    1
    46     9    10    1
    47    23    24    1
@<TRIPOS>MOLECULE
*****
 42 47 0 0 0
SMALL
GASTEIGER

@<TRIPOS>ATOM
      1 C         140.6323  138.5424  164.7117 C.3     1  UNL1        0.0932
      2 C         139.5765  138.9519  165.6954 C.3     1  UNL1        0.0286
      3 C         138.4011  139.7645  165.2392 C.3     1  UNL1        0.0193
      4 C         138.2815  140.1676  163.7993 C.3     1  UNL1        0.0700
      5 C         139.3373  139.7581  162.8156 C.3     1  UNL1        0.0193
      6 C         140.5127  138.9455  163.2719 C.3     1  UNL1        0.0286
      7 C         138.9436  139.7223  164.0022 C.3     1  UNL1        0.1562
      8 O         140.0065  138.9875  164.4147 O.3     1  UNL1       -0.3572
      9 N         137.1061  140.9801  163.3431 N.3     1  UNL1       -0.2926
     10 H         136.3207  140.7234  163.9412 H       1  UNL1        0.1236
     11 C         137.1826  142.4782  163.3482 C.3     1  UNL1        0.1148
     12 C         138.2742  143.1760  162.5924 C.ar    1  UNL1        0.0722
     13 N         138.2946  143.1323  161.0931 N.ar    1  UNL1       -0.2308
     14 C         139.3863  143.8302  160.3373 C.ar    1  UNL1        0.1679
     15 C         140.4575  144.5717  161.0807 C.ar    1  UNL1        0.1664
     16 C         140.4371  144.6153  162.5799 C.ar    1  UNL1        0.0122
     17 C         141.5085  145.3568  163.3232 C.3     1  UNL1        0.0340
     18 C         139.3455  143.9175  163.3357 C.ar    1  UNL1       -0.0085
     19 O         141.5492  145.2695  160.3248 O.3     1  UNL1       -0.4631
     20 C         141.5696  145.2259  158.8256 C.3     1  UNL1        0.2898
     21 C         140.4983  144.4843  158.0822 C.2     1  UNL1        0.2718
     22 O         140.5187  144.4407  156.5830 O.2     1  UNL1       -0.2707
     23 N         139.4067  143.7865  158.8381 N.am    1  UNL1       -0.2639
     24 H         138.7036  143.2999  158.3502 H       1  UNL1        0.1565
     25 C         139.3251  143.9612  164.8350 C.3     1  UNL1        0.0233
     26 C         140.0949  142.9451  165.6254 C.3     1  UNL1        0.0047
     27 C         138.5349  145.0210  165.5437 C.3     1  UNL1        0.0047
     28 C         141.8077  137.7299  165.1679 C.3     1  UNL1        0.0320
     29 C         143.1249  138.3980  165.4304 C.3     1  UNL1        0.0327
     30 C         144.4389  141.9261  162.9655 C.ar    1  UNL1        0.2250
     31 C         144.4767  143.2955  163.5765 C.ar    1  UNL1        0.0593
     32 C         144.0765  143.4888  165.0091 C.ar    1  UNL1        0.0254
     33 C         143.6385  142.3128  165.8308 C.ar    1  UNL1        0.0990
     34 N         143.2383  142.5061  167.2634 N.ar    1  UNL1       -0.2400
     35 C         142.8003  141.3301  168.0850 C.ar    1  UNL1        0.1281
     36 C         142.7625  139.9607  167.4740 C.ar    1  UNL1        0.1566
     37 F         142.3245  138.7847  168.2956 F       1  UNL1       -0.2028
     38 C         143.1627  139.7673  166.0414 C.ar    1  UNL1        0.0261
     39 C         143.6007  140.9434  165.2197 C.ar    1  UNL1        0.1002
     40 N         144.0009  140.7501  163.7871 N.ar    1  UNL1       -0.2104
     41 C         143.8492  141.9921  160.4361 C.3     1  UNL1        0.2542
     42 O         144.8391  141.7328  161.5328 O.3     1  UNL1       -0.4561
@<TRIPOS>BOND
     1    41    42    1
     2    42    30    1
     3    30    31   ar
     4    31    32   ar
     5    32    33   ar
     6    33    34   ar
     7    34    35   ar
     8    35    36   ar
     9    36    37    1
    10    36    38   ar
    11    38    29    1
    12    29    28    1
    13    28     1    1
    14     1     2    1
    15     2     3    1
    16     3     4    1
    17     4     9    1
    18     9    11    1
    19    11    12    1
    20    12    13   ar
    21    13    14   ar
    22    14    15   ar
    23    15    16   ar
    24    16    17    1
    25    16    18   ar
    26    18    25    1
    27    25    26    1
    28    25    27    1
    29    15    19    1
    30    19    20    1
    31    20    21    1
    32    21    22    2
    33    21    23   am
    34     4     5    1
    35     5     6    1
    36     4     7    1
    37     7     8    1
    38    38    39   ar
    39    39    40   ar
    40    40    30   ar
    41    39    33   ar
    42     6     1    1
    43     8     1    1
    44    18    12   ar
    45    23    14    1
    46     9    10    1
    47    23    24    1
@<TRIPOS>MOLECULE
*****
 42 47 0 0 0
SMALL
GASTEIGER

@<TRIPOS>ATOM
      1 C         144.7023  141.8235  163.5824 C.3     1  UNL1        0.0932
      2 C         144.1716  141.9784  162.1880 C.3     1  UNL1        0.0286
      3 C         143.3245  143.1651  161.8354 C.3     1  UNL1        0.0193
      4 C         143.0082  144.1969  162.8773 C.3     1  UNL1        0.0700
      5 C         143.5389  144.0419  164.2717 C.3     1  UNL1        0.0193
      6 C         144.3860  142.8552  164.6242 C.3     1  UNL1        0.0286
      7 C         143.4764  143.5637  163.1177 C.3     1  UNL1        0.1562
      8 O         144.2424  142.4907  163.4366 O.3     1  UNL1       -0.3572
      9 N         142.1612  145.3835  162.5247 N.3     1  UNL1       -0.2926
     10 H         142.2905  145.5516  161.5270 H       1  UNL1        0.1236
     11 C         140.6817  145.3483  162.7696 C.3     1  UNL1        0.1148
     12 C         139.9039  144.0978  162.4847 C.ar    1  UNL1        0.0722
     13 N         139.7630  143.6072  161.0743 N.ar    1  UNL1       -0.2308
     14 C         138.9851  142.3566  160.7894 C.ar    1  UNL1        0.1679
     15 C         138.3482  141.5968  161.9149 C.ar    1  UNL1        0.1664
     16 C         138.4891  142.0874  163.3254 C.ar    1  UNL1        0.0122
     17 C         137.8521  141.3275  164.4510 C.3     1  UNL1        0.0340
     18 C         139.2669  143.3379  163.6103 C.ar    1  UNL1       -0.0085
     19 O         137.5703  140.3462  161.6301 O.3     1  UNL1       -0.4631
     20 C         137.4294  139.8556  160.2196 C.3     1  UNL1        0.2898
     21 C         138.0664  140.6155  159.0940 C.2     1  UNL1        0.2718
     22 O         137.9255  140.1248  157.6836 O.2     1  UNL1       -0.2707
     23 N         138.8442  141.8660  159.3789 N.am    1  UNL1       -0.2639
     24 H         139.2623  142.3647  158.6402 H       1  UNL1        0.1565
     25 C         139.4078  143.8286  165.0208 C.3     1  UNL1        0.0233
     26 C         138.5012  144.9079  165.5335 C.3     1  UNL1        0.0047
     27 C         140.4554  143.2398  165.9186 C.3     1  UNL1        0.0047
     28 C         145.5493  140.6368  163.9349 C.3     1  UNL1        0.0320
     29 C         144.9307  139.4467  164.6066 C.3     1  UNL1        0.0327
     30 C         142.0250  140.3670  167.9172 C.ar    1  UNL1        0.2250
     31 C         140.5645  140.0781  167.7350 C.ar    1  UNL1        0.0593
     32 C         140.0724  139.4824  166.4492 C.ar    1  UNL1        0.0254
     33 C         141.0410  139.1756  165.3457 C.ar    1  UNL1        0.0990
     34 N         140.5489  138.5800  164.0600 N.ar    1  UNL1       -0.2400
     35 C         141.5174  138.2732  162.9565 C.ar    1  UNL1        0.1281
     36 C         142.9781  138.5621  163.1387 C.ar    1  UNL1        0.1566
     37 F         143.9466  138.2554  162.0351 F       1  UNL1       -0.2028
     38 C         143.4701  139.1578  164.4244 C.ar    1  UNL1        0.0261
     39 C         142.5015  139.4646  165.5279 C.ar    1  UNL1        0.1002
     40 N         142.9935  140.0603  166.8136 N.ar    1  UNL1       -0.2104
     41 C         143.0484  142.3652  169.2247 C.3     1  UNL1        0.2542
     42 O         142.5170  140.9627  169.2029 O.3     1  UNL1       -0.4561
@<TRIPOS>BOND
     1    41    42    1
     2    42    30    1
     3    30    31   ar
     4    31    32   ar
     5    32    33   ar
     6    33    34   ar
     7    34    35   ar
     8    35    36   ar
     9    36    37    1
    10    36    38   ar
    11    38    29    1
    12    29    28    1
    13    28     1    1
    14     1     2    1
    15     2     3    1
    16     3     4    1
    17     4     9    1
    18     9    11    1
    19    11    12    1
    20    12    13   ar
    21    13    14   ar
    22    14    15   ar
    23    15    16   ar
    24    16    17    1
    25    16    18   ar
    26    18    25    1
    27    25    26    1
    28    25    27    1
    29    15    19    1
    30    19    20    1
    31    20    21    1
    32    21    22    2
    33    21    23   am
    34     4     5    1
    35     5     6    1
    36     4     7    1
    37     7     8    1
    38    38    39   ar
    39    39    40   ar
    40    40    30   ar
    41    39    33   ar
    42     6     1    1
    43     8     1    1
    44    18    12   ar
    45    23    14    1
    46     9    10    1
    47    23    24    1
@<TRIPOS>MOLECULE
*****
 42 47 0 0 0
SMALL
GASTEIGER

@<TRIPOS>ATOM
      1 C         141.1507  137.9764  164.3792 C.3     1  UNL1        0.0932
      2 C         141.4684  138.2933  162.9479 C.3     1  UNL1        0.0286
      3 C         142.8180  138.8358  162.5815 C.3     1  UNL1        0.0193
      4 C         143.8500  139.0615  163.6465 C.3     1  UNL1        0.0700
      5 C         143.5323  138.7446  165.0778 C.3     1  UNL1        0.0193
      6 C         142.1826  138.2021  165.4441 C.3     1  UNL1        0.0286
      7 C         143.1244  138.7625  163.8957 C.3     1  UNL1        0.1562
      8 O         141.9040  138.2719  164.2270 O.3     1  UNL1       -0.3572
      9 N         145.1995  139.6040  163.2802 N.3     1  UNL1       -0.2926
     10 H         145.3699  139.3392  162.3100 H       1  UNL1        0.1236
     11 C         145.4686  141.0762  163.3808 C.3     1  UNL1        0.1148
     12 C         144.5291  142.0557  162.7423 C.ar    1  UNL1        0.0722
     13 N         144.3472  142.0591  161.2534 N.ar    1  UNL1       -0.2308
     14 C         143.4076  143.0388  160.6149 C.ar    1  UNL1        0.1679
     15 C         142.6500  144.0149  161.4653 C.ar    1  UNL1        0.1664
     16 C         142.8320  144.0115  162.9542 C.ar    1  UNL1        0.0122
     17 C         142.0743  144.9877  163.8046 C.3     1  UNL1        0.0340
     18 C         143.7715  143.0319  163.5927 C.ar    1  UNL1       -0.0085
     19 O         141.7105  144.9945  160.8267 O.3     1  UNL1       -0.4631
     20 C         141.5285  144.9979  159.3378 C.3     1  UNL1        0.2898
     21 C         142.2861  144.0217  158.4874 C.2     1  UNL1        0.2718
     22 O         142.1042  144.0251  156.9985 O.2     1  UNL1       -0.2707
     23 N         143.2257  143.0422  159.1259 N.am    1  UNL1       -0.2639
     24 H         143.7229  142.4015  158.5678 H       1  UNL1        0.1565
     25 C         143.9534  143.0285  165.0816 C.3     1  UNL1        0.0233
     26 C         143.1993  142.0455  165.9271 C.3     1  UNL1        0.0047
     27 C         144.8896  144.0082  165.7250 C.3     1  UNL1        0.0047
     28 C         139.8011  137.4339  164.7455 C.3     1  UNL1        0.0320
     29 C         138.7264  138.3612  165.2307 C.3     1  UNL1        0.0327
     30 C         140.3234  141.4353  168.1028 C.ar    1  UNL1        0.2250
     31 C         140.3501  142.8835  167.7130 C.ar    1  UNL1        0.0593
     32 C         139.8445  143.3070  166.3658 C.ar    1  UNL1        0.0254
     33 C         139.3122  142.2823  165.4084 C.ar    1  UNL1        0.0990
     34 N         138.8066  142.7058  164.0612 N.ar    1  UNL1       -0.2400
     35 C         138.2742  141.6811  163.1038 C.ar    1  UNL1        0.1281
     36 C         138.2475  140.2329  163.4936 C.ar    1  UNL1        0.1566
     37 F         137.7152  139.2082  162.5363 F       1  UNL1       -0.2028
     38 C         138.7531  139.8094  164.8408 C.ar    1  UNL1        0.0261
     39 C         139.2855  140.8342  165.7982 C.ar    1  UNL1        0.1002
     40 N         139.7911  140.4107  167.1455 N.ar    1  UNL1       -0.2104
     41 C         139.9044  140.3389  170.4206 C.3     1  UNL1        0.2542
     42 O         140.8291  141.0118  169.4501 O.3     1  UNL1       -0.4561
@<TRIPOS>BOND
     1    41    42    1
     2    42    30    1
     3    30    31   ar
     4    31    32   ar
     5    32    33   ar
     6    33    34   ar
     7    34    35   ar
     8    35    36   ar
     9    36    37    1
    10    36    38   ar
    11    38    29    1
    12    29    28    1
    13    28     1    1
    14     1     2    1
    15     2     3    1
    16     3     4    1
    17     4     9    1
    18     9    11    1
    19    11    12    1
    20    12    13   ar
    21    13    14   ar
    22    14    15   ar
    23    15    16   ar
    24    16    17    1
    25    16    18   ar
    26    18    25    1
    27    25    26    1
    28    25    27    1
    29    15    19    1
    30    19    20    1
    31    20    21    1
    32    21    22    2
    33    21    23   am
    34     4     5    1
    35     5     6    1
    36     4     7    1
    37     7     8    1
    38    38    39   ar
    39    39    40   ar
    40    40    30   ar
    41    39    33   ar
    42     6     1    1
    43     8     1    1
    44    18    12   ar
    45    23    14    1
    46     9    10    1
    47    23    24    1
@<TRIPOS>MOLECULE
*****
 42 47 0 0 0
SMALL
GASTEIGER

@<TRIPOS>ATOM
      1 C         140.1387  143.8688  162.8066 C.3     1  UNL1        0.0932
      2 C         139.8899  143.9277  164.2846 C.3     1  UNL1        0.0286
      3 C         139.0585  142.8699  164.9479 C.3     1  UNL1        0.0193
      4 C         138.4759  141.7533  164.1332 C.3     1  UNL1        0.0700
      5 C         138.7247  141.6945  162.6551 C.3     1  UNL1        0.0193
      6 C         139.5561  142.7523  161.9918 C.3     1  UNL1        0.0286
      7 C         138.9249  142.3100  163.7252 C.3     1  UNL1        0.1562
      8 O         139.6767  143.2665  163.1254 O.3     1  UNL1       -0.3572
      9 N         137.6445  140.6956  164.7964 N.3     1  UNL1       -0.2926
     10 H         136.9863  140.3557  164.0953 H       1  UNL1        0.1236
     11 C         138.3041  139.4876  165.3929 C.3     1  UNL1        0.1148
     12 C         139.5100  139.6479  166.2704 C.ar    1  UNL1        0.0722
     13 N         139.3863  140.3386  167.5962 N.ar    1  UNL1       -0.2308
     14 C         140.5922  140.4989  168.4737 C.ar    1  UNL1        0.1679
     15 C         141.9218  139.9686  168.0254 C.ar    1  UNL1        0.1664
     16 C         142.0455  139.2780  166.6996 C.ar    1  UNL1        0.0122
     17 C         143.3752  138.7477  166.2514 C.3     1  UNL1        0.0340
     18 C         140.8396  139.1176  165.8221 C.ar    1  UNL1       -0.0085
     19 O         143.1278  140.1290  168.9030 O.3     1  UNL1       -0.4631
     20 C         143.0041  140.8196  170.2288 C.3     1  UNL1        0.2898
     21 C         141.6744  141.3499  170.6770 C.2     1  UNL1        0.2718
     22 O         141.5508  142.0406  172.0028 O.2     1  UNL1       -0.2707
     23 N         140.4686  141.1896  169.7995 N.am    1  UNL1       -0.2639
     24 H         139.5959  141.5376  170.0937 H       1  UNL1        0.1565
     25 C         140.9633  138.4270  164.4963 C.3     1  UNL1        0.0233
     26 C         141.1365  139.2337  163.2437 C.3     1  UNL1        0.0047
     27 C         140.9138  136.9295  164.4232 C.3     1  UNL1        0.0047
     28 C         140.9701  144.9266  162.1433 C.3     1  UNL1        0.0320
     29 C         142.4161  144.6649  161.8424 C.3     1  UNL1        0.0327
     30 C         143.4163  140.4480  160.6310 C.ar    1  UNL1        0.2250
     31 C         144.2269  139.5774  161.5447 C.ar    1  UNL1        0.0593
     32 C         144.7041  140.1125  162.8623 C.ar    1  UNL1        0.0254
     33 C         144.3708  141.5181  163.2661 C.ar    1  UNL1        0.0990
     34 N         144.8480  142.0531  164.5836 N.ar    1  UNL1       -0.2400
     35 C         144.5147  143.4588  164.9874 C.ar    1  UNL1        0.1281
     36 C         143.7040  144.3294  164.0737 C.ar    1  UNL1        0.1566
     37 F         143.3706  145.7350  164.4775 F       1  UNL1       -0.2028
     38 C         143.2267  143.7943  162.7561 C.ar    1  UNL1        0.0261
     39 C         143.5602  142.3886  162.3523 C.ar    1  UNL1        0.1002
     40 N         143.0829  141.8536  161.0348 N.ar    1  UNL1       -0.2104
     41 C         141.5101  139.4869  159.1502 C.3     1  UNL1        0.2542
     42 O         142.9390  139.9129  159.3134 O.3     1  UNL1       -0.4561
@<TRIPOS>BOND
     1    41    42    1
     2    42    30    1
     3    30    31   ar
     4    31    32   ar
     5    32    33   ar
     6    33    34   ar
     7    34    35   ar
     8    35    36   ar
     9    36    37    1
    10    36    38   ar
    11    38    29    1
    12    29    28    1
    13    28     1    1
    14     1     2    1
    15     2     3    1
    16     3     4    1
    17     4     9    1
    18     9    11    1
    19    11    12    1
    20    12    13   ar
    21    13    14   ar
    22    14    15   ar
    23    15    16   ar
    24    16    17    1
    25    16    18   ar
    26    18    25    1
    27    25    26    1
    28    25    27    1
    29    15    19    1
    30    19    20    1
    31    20    21    1
    32    21    22    2
    33    21    23   am
    34     4     5    1
    35     5     6    1
    36     4     7    1
    37     7     8    1
    38    38    39   ar
    39    39    40   ar
    40    40    30   ar
    41    39    33   ar
    42     6     1    1
    43     8     1    1
    44    18    12   ar
    45    23    14    1
    46     9    10    1
    47    23    24    1
@<TRIPOS>MOLECULE
*****
 42 47 0 0 0
SMALL
GASTEIGER

@<TRIPOS>ATOM
      1 C         141.2503  138.0072  164.4251 C.3     1  UNL1        0.0932
      2 C         141.5919  138.3299  163.0006 C.3     1  UNL1        0.0286
      3 C         142.9350  138.9063  162.6635 C.3     1  UNL1        0.0193
      4 C         143.9367  139.1600  163.7509 C.3     1  UNL1        0.0700
      5 C         143.5952  138.8373  165.1754 C.3     1  UNL1        0.0193
      6 C         142.2519  138.2608  165.5125 C.3     1  UNL1        0.0286
      7 C         143.2136  138.8429  163.9844 C.3     1  UNL1        0.1562
      8 O         141.9991  138.3217  164.2892 O.3     1  UNL1       -0.3572
      9 N         145.2798  139.7364  163.4137 N.3     1  UNL1       -0.2926
     10 H         145.4865  139.4597  162.4540 H       1  UNL1        0.1236
     11 C         145.5021  141.2176  163.4948 C.3     1  UNL1        0.1148
     12 C         144.5408  142.1578  162.8299 C.ar    1  UNL1        0.0722
     13 N         144.3776  142.1332  161.3390 N.ar    1  UNL1       -0.2308
     14 C         143.4162  143.0734  160.6742 C.ar    1  UNL1        0.1679
     15 C         142.6182  144.0381  161.5003 C.ar    1  UNL1        0.1664
     16 C         142.7814  144.0627  162.9912 C.ar    1  UNL1        0.0122
     17 C         141.9833  145.0274  163.8172 C.3     1  UNL1        0.0340
     18 C         143.7427  143.1225  163.6560 C.ar    1  UNL1       -0.0085
     19 O         141.6568  144.9783  160.8355 O.3     1  UNL1       -0.4631
     20 C         141.4936  144.9537  159.3446 C.3     1  UNL1        0.2898
     21 C         142.2917  143.9890  158.5185 C.2     1  UNL1        0.2718
     22 O         142.1285  143.9644  157.0276 O.2     1  UNL1       -0.2707
     23 N         143.2530  143.0488  159.1833 N.am    1  UNL1       -0.2639
     24 H         143.7768  142.4156  158.6412 H       1  UNL1        0.1565
     25 C         143.9059  143.1471  165.1469 C.3     1  UNL1        0.0233
     26 C         143.0471  142.2710  166.0099 C.3     1  UNL1        0.0047
     27 C         144.9280  144.0478  165.7747 C.3     1  UNL1        0.0047
     28 C         139.9072  137.4308  164.7623 C.3     1  UNL1        0.0320
     29 C         138.7891  138.3347  165.1900 C.3     1  UNL1        0.0327
     30 C         137.9313  140.7269  161.4764 C.ar    1  UNL1        0.2250
     31 C         138.1285  142.2138  161.4799 C.ar    1  UNL1        0.0593
     32 C         138.6116  142.9034  162.7213 C.ar    1  UNL1        0.0254
     33 C         138.8975  142.1060  163.9592 C.ar    1  UNL1        0.0990
     34 N         139.3806  142.7956  165.2006 N.ar    1  UNL1       -0.2400
     35 C         139.6665  141.9982  166.4385 C.ar    1  UNL1        0.1281
     36 C         139.4694  140.5112  166.4350 C.ar    1  UNL1        0.1566
     37 F         139.7553  139.7138  167.6729 F       1  UNL1       -0.2028
     38 C         138.9863  139.8216  165.1936 C.ar    1  UNL1        0.0261
     39 C         138.7003  140.6191  163.9557 C.ar    1  UNL1        0.1002
     40 N         138.2172  139.9295  162.7142 N.ar    1  UNL1       -0.2104
     41 C         137.9820  140.4460  158.8940 C.3     1  UNL1        0.2542
     42 O         137.4482  140.0373  160.2350 O.3     1  UNL1       -0.4561
@<TRIPOS>BOND
     1    41    42    1
     2    42    30    1
     3    30    31   ar
     4    31    32   ar
     5    32    33   ar
     6    33    34   ar
     7    34    35   ar
     8    35    36   ar
     9    36    37    1
    10    36    38   ar
    11    38    29    1
    12    29    28    1
    13    28     1    1
    14     1     2    1
    15     2     3    1
    16     3     4    1
    17     4     9    1
    18     9    11    1
    19    11    12    1
    20    12    13   ar
    21    13    14   ar
    22    14    15   ar
    23    15    16   ar
    24    16    17    1
    25    16    18   ar
    26    18    25    1
    27    25    26    1
    28    25    27    1
    29    15    19    1
    30    19    20    1
    31    20    21    1
    32    21    22    2
    33    21    23   am
    34     4     5    1
    35     5     6    1
    36     4     7    1
    37     7     8    1
    38    38    39   ar
    39    39    40   ar
    40    40    30   ar
    41    39    33   ar
    42     6     1    1
    43     8     1    1
    44    18    12   ar
    45    23    14    1
    46     9    10    1
    47    23    24    1
@<TRIPOS>MOLECULE
*****
 42 47 0 0 0
SMALL
GASTEIGER

@<TRIPOS>ATOM
      1 C         141.6661  144.4158  162.8822 C.3     1  UNL1        0.0932
      2 C         141.9472  144.3241  164.3527 C.3     1  UNL1        0.0286
      3 C         142.8127  143.2200  164.8834 C.3     1  UNL1        0.0193
      4 C         143.3973  142.2076  163.9435 C.3     1  UNL1        0.0700
      5 C         143.1162  142.2993  162.4730 C.3     1  UNL1        0.0193
      6 C         142.2506  143.4035  161.9423 C.3     1  UNL1        0.0286
      7 C         142.9289  142.7946  163.6060 C.3     1  UNL1        0.1562
      8 O         142.1462  143.7930  163.1261 O.3     1  UNL1       -0.3572
      9 N         144.2629  141.1035  164.4742 N.3     1  UNL1       -0.2926
     10 H         144.7611  141.4813  165.2801 H       1  UNL1        0.1236
     11 C         143.6431  139.8107  164.9155 C.3     1  UNL1        0.1148
     12 C         142.4715  139.8219  165.8521 C.ar    1  UNL1        0.0722
     13 N         142.6212  140.3864  167.2338 N.ar    1  UNL1       -0.2308
     14 C         141.4495  140.3975  168.1704 C.ar    1  UNL1        0.1679
     15 C         140.1283  139.8442  167.7253 C.ar    1  UNL1        0.1664
     16 C         139.9786  139.2798  166.3437 C.ar    1  UNL1        0.0122
     17 C         138.6573  138.7265  165.8986 C.3     1  UNL1        0.0340
     18 C         141.1502  139.2686  165.4071 C.ar    1  UNL1       -0.0085
     19 O         138.9566  139.8554  168.6620 O.3     1  UNL1       -0.4631
     20 C         139.1063  140.4198  170.0436 C.3     1  UNL1        0.2898
     21 C         140.4277  140.9731  170.4887 C.2     1  UNL1        0.2718
     22 O         140.5774  141.5376  171.8703 O.2     1  UNL1       -0.2707
     23 N         141.5992  140.9620  169.5521 N.am    1  UNL1       -0.2639
     24 H         142.4664  141.3251  169.8442 H       1  UNL1        0.1565
     25 C         141.0005  138.7042  164.0254 C.3     1  UNL1        0.0233
     26 C         140.6911  139.6134  162.8733 C.3     1  UNL1        0.0047
     27 C         141.1602  137.2304  163.7960 C.3     1  UNL1        0.0047
     28 C         140.8005  145.5200  162.3515 C.3     1  UNL1        0.0320
     29 C         139.3144  145.3337  162.2679 C.3     1  UNL1        0.0327
     30 C         138.6983  142.1469  159.1511 C.ar    1  UNL1        0.2250
     31 C         138.0845  140.8327  159.5333 C.ar    1  UNL1        0.0593
     32 C         137.6760  140.5808  160.9545 C.ar    1  UNL1        0.0254
     33 C         137.8814  141.6430  161.9934 C.ar    1  UNL1        0.0990
     34 N         137.4729  141.3911  163.4146 N.ar    1  UNL1       -0.2400
     35 C         137.6783  142.4533  164.4535 C.ar    1  UNL1        0.1281
     36 C         138.2921  143.7676  164.0713 C.ar    1  UNL1        0.1566
     37 F         138.4975  144.8298  165.1103 F       1  UNL1       -0.2028
     38 C         138.7006  144.0195  162.6502 C.ar    1  UNL1        0.0261
     39 C         138.4952  142.9572  161.6112 C.ar    1  UNL1        0.1002
     40 N         138.9036  143.2091  160.1900 N.ar    1  UNL1       -0.2104
     41 C         139.8421  143.6564  157.3726 C.3     1  UNL1        0.2542
     42 O         139.1067  142.3988  157.7300 O.3     1  UNL1       -0.4561
@<TRIPOS>BOND
     1    41    42    1
     2    42    30    1
     3    30    31   ar
     4    31    32   ar
     5    32    33   ar
     6    33    34   ar
     7    34    35   ar
     8    35    36   ar
     9    36    37    1
    10    36    38   ar
    11    38    29    1
    12    29    28    1
    13    28     1    1
    14     1     2    1
    15     2     3    1
    16     3     4    1
    17     4     9    1
    18     9    11    1
    19    11    12    1
    20    12    13   ar
    21    13    14   ar
    22    14    15   ar
    23    15    16   ar
    24    16    17    1
    25    16    18   ar
    26    18    25    1
    27    25    26    1
    28    25    27    1
    29    15    19    1
    30    19    20    1
    31    20    21    1
    32    21    22    2
    33    21    23   am
    34     4     5    1
    35     5     6    1
    36     4     7    1
    37     7     8    1
    38    38    39   ar
    39    39    40   ar
    40    40    30   ar
    41    39    33   ar
    42     6     1    1
    43     8     1    1
    44    18    12   ar
    45    23    14    1
    46     9    10    1
    47    23    24    1
@<TRIPOS>MOLECULE
*****
 42 47 0 0 0
SMALL
GASTEIGER

@<TRIPOS>ATOM
      1 C         138.0441  140.3979  161.9213 C.3     1  UNL1        0.0932
      2 C         137.3627  140.8975  163.1607 C.3     1  UNL1        0.0286
      3 C         137.6345  142.2863  163.6580 C.3     1  UNL1        0.0193
      4 C         138.5878  143.1755  162.9160 C.3     1  UNL1        0.0700
      5 C         139.2692  142.6759  161.6766 C.3     1  UNL1        0.0193
      6 C         138.9974  141.2871  161.1793 C.3     1  UNL1        0.0286
      7 C         138.4706  142.4222  162.6050 C.3     1  UNL1        0.1562
      8 O         138.2248  141.1664  162.1553 O.3     1  UNL1       -0.3572
      9 N         138.8596  144.5643  163.4133 N.3     1  UNL1       -0.2926
     10 H         138.0799  144.8175  164.0203 H       1  UNL1        0.1236
     11 C         140.1164  144.8542  164.1791 C.3     1  UNL1        0.1148
     12 C         140.7951  143.7599  164.9485 C.ar    1  UNL1        0.0722
     13 N         140.1037  143.1260  166.1190 N.ar    1  UNL1       -0.2308
     14 C         140.7824  142.0317  166.8884 C.ar    1  UNL1        0.1679
     15 C         142.1525  141.5714  166.4873 C.ar    1  UNL1        0.1664
     16 C         142.8439  142.2054  165.3168 C.ar    1  UNL1        0.0122
     17 C         144.2141  141.7450  164.9158 C.3     1  UNL1        0.0340
     18 C         142.1652  143.2996  164.5474 C.ar    1  UNL1       -0.0085
     19 O         142.8313  140.4772  167.2568 O.3     1  UNL1       -0.4631
     20 C         142.1398  139.8433  168.4273 C.3     1  UNL1        0.2898
     21 C         140.7697  140.3036  168.8284 C.2     1  UNL1        0.2718
     22 O         140.0782  139.6697  169.9989 O.2     1  UNL1       -0.2707
     23 N         140.0910  141.3978  168.0589 N.am    1  UNL1       -0.2639
     24 H         139.1917  141.6999  168.3222 H       1  UNL1        0.1565
     25 C         142.8567  143.9335  163.3769 C.3     1  UNL1        0.0233
     26 C         143.6779  145.1734  163.5724 C.3     1  UNL1        0.0047
     27 C         142.7268  143.3275  162.0109 C.3     1  UNL1        0.0047
     28 C         137.7723  139.0091  161.4240 C.3     1  UNL1        0.0320
     29 C         138.4642  137.8375  162.0554 C.3     1  UNL1        0.0327
     30 C         142.5197  137.9382  160.1082 C.ar    1  UNL1        0.2250
     31 C         143.7474  138.1528  160.9429 C.ar    1  UNL1        0.0593
     32 C         143.6232  138.3338  162.4267 C.ar    1  UNL1        0.0254
     33 C         142.2713  138.3003  163.0758 C.ar    1  UNL1        0.0990
     34 N         142.1471  138.4813  164.5597 N.ar    1  UNL1       -0.2400
     35 C         140.7953  138.4477  165.2088 C.ar    1  UNL1        0.1281
     36 C         139.5676  138.2331  164.3740 C.ar    1  UNL1        0.1566
     37 F         138.2157  138.1995  165.0231 F       1  UNL1       -0.2028
     38 C         139.6918  138.0521  162.8902 C.ar    1  UNL1        0.0261
     39 C         141.0437  138.0857  162.2411 C.ar    1  UNL1        0.1002
     40 N         141.1679  137.9047  160.7572 N.ar    1  UNL1       -0.2104
     41 C         142.4957  138.9369  157.7098 C.3     1  UNL1        0.2542
     42 O         142.6440  137.7572  158.6243 O.3     1  UNL1       -0.4561
@<TRIPOS>BOND
     1    41    42    1
     2    42    30    1
     3    30    31   ar
     4    31    32   ar
     5    32    33   ar
     6    33    34   ar
     7    34    35   ar
     8    35    36   ar
     9    36    37    1
    10    36    38   ar
    11    38    29    1
    12    29    28    1
    13    28     1    1
    14     1     2    1
    15     2     3    1
    16     3     4    1
    17     4     9    1
    18     9    11    1
    19    11    12    1
    20    12    13   ar
    21    13    14   ar
    22    14    15   ar
    23    15    16   ar
    24    16    17    1
    25    16    18   ar
    26    18    25    1
    27    25    26    1
    28    25    27    1
    29    15    19    1
    30    19    20    1
    31    20    21    1
    32    21    22    2
    33    21    23   am
    34     4     5    1
    35     5     6    1
    36     4     7    1
    37     7     8    1
    38    38    39   ar
    39    39    40   ar
    40    40    30   ar
    41    39    33   ar
    42     6     1    1
    43     8     1    1
    44    18    12   ar
    45    23    14    1
    46     9    10    1
    47    23    24    1
@<TRIPOS>MOLECULE
*****
 42 47 0 0 0
SMALL
GASTEIGER

@<TRIPOS>ATOM
      1 C         142.6493  144.4834  163.5334 C.3     1  UNL1        0.0932
      2 C         142.5201  144.2889  162.0517 C.3     1  UNL1        0.0286
      3 C         141.1627  144.1490  161.4292 C.3     1  UNL1        0.0193
      4 C         139.9343  144.2036  162.2884 C.3     1  UNL1        0.0700
      5 C         140.0635  144.3982  163.7701 C.3     1  UNL1        0.0193
      6 C         141.4211  144.5381  164.3926 C.3     1  UNL1        0.0286
      7 C         140.6567  144.2851  162.6749 C.3     1  UNL1        0.1562
      8 O         141.8842  144.4116  163.2379 O.3     1  UNL1       -0.3572
      9 N         138.5768  144.0637  161.6659 N.3     1  UNL1       -0.2926
     10 H         138.5359  144.7309  160.8955 H       1  UNL1        0.1236
     11 C         138.1369  142.7394  161.1155 C.3     1  UNL1        0.1148
     12 C         138.4165  141.4794  161.8798 C.ar    1  UNL1        0.0722
     13 N         137.9524  141.3449  163.2999 N.ar    1  UNL1       -0.2308
     14 C         138.2320  140.0848  164.0641 C.ar    1  UNL1        0.1679
     15 C         138.9756  138.9593  163.4084 C.ar    1  UNL1        0.1664
     16 C         139.4397  139.0938  161.9883 C.ar    1  UNL1        0.0122
     17 C         140.1834  137.9682  161.3325 C.3     1  UNL1        0.0340
     18 C         139.1602  140.3538  161.2240 C.ar    1  UNL1       -0.0085
     19 O         139.2552  137.6992  164.1726 O.3     1  UNL1       -0.4631
     20 C         138.7911  137.5647  165.5927 C.3     1  UNL1        0.2898
     21 C         138.0474  138.6903  166.2484 C.2     1  UNL1        0.2718
     22 O         137.5833  138.5559  167.6685 O.2     1  UNL1       -0.2707
     23 N         137.7679  139.9504  165.4842 N.am    1  UNL1       -0.2639
     24 H         137.2798  140.6891  165.9146 H       1  UNL1        0.1565
     25 C         139.6243  140.4883  159.8040 C.3     1  UNL1        0.0233
     26 C         140.9878  141.0395  159.5096 C.3     1  UNL1        0.0047
     27 C         138.7247  140.0715  158.6783 C.3     1  UNL1        0.0047
     28 C         144.0068  144.6233  164.1560 C.3     1  UNL1        0.0320
     29 C         144.4396  143.6732  165.2330 C.3     1  UNL1        0.0327
     30 C         141.2922  141.5736  167.6693 C.ar    1  UNL1        0.2250
     31 C         141.0732  140.0993  167.5011 C.ar    1  UNL1        0.0593
     32 C         141.9034  139.3247  166.5208 C.ar    1  UNL1        0.0254
     33 C         142.9526  140.0246  165.7088 C.ar    1  UNL1        0.0990
     34 N         143.7828  139.2500  164.7285 N.ar    1  UNL1       -0.2400
     35 C         144.8319  139.9499  163.9164 C.ar    1  UNL1        0.1281
     36 C         145.0509  141.4243  164.0846 C.ar    1  UNL1        0.1566
     37 F         146.1000  142.1241  163.2725 F       1  UNL1       -0.2028
     38 C         144.2207  142.1988  165.0648 C.ar    1  UNL1        0.0261
     39 C         143.1715  141.4989  165.8769 C.ar    1  UNL1        0.1002
     40 N         142.3413  142.2734  166.8572 N.ar    1  UNL1       -0.2104
     41 C         140.8698  142.4126  170.0915 C.3     1  UNL1        0.2542
     42 O         140.4620  142.3481  168.6495 O.3     1  UNL1       -0.4561
@<TRIPOS>BOND
     1    41    42    1
     2    42    30    1
     3    30    31   ar
     4    31    32   ar
     5    32    33   ar
     6    33    34   ar
     7    34    35   ar
     8    35    36   ar
     9    36    37    1
    10    36    38   ar
    11    38    29    1
    12    29    28    1
    13    28     1    1
    14     1     2    1
    15     2     3    1
    16     3     4    1
    17     4     9    1
    18     9    11    1
    19    11    12    1
    20    12    13   ar
    21    13    14   ar
    22    14    15   ar
    23    15    16   ar
    24    16    17    1
    25    16    18   ar
    26    18    25    1
    27    25    26    1
    28    25    27    1
    29    15    19    1
    30    19    20    1
    31    20    21    1
    32    21    22    2
    33    21    23   am
    34     4     5    1
    35     5     6    1
    36     4     7    1
    37     7     8    1
    38    38    39   ar
    39    39    40   ar
    40    40    30   ar
    41    39    33   ar
    42     6     1    1
    43     8     1    1
    44    18    12   ar
    45    23    14    1
    46     9    10    1
    47    23    24    1
