@<TRIPOS>MOLECULE
*****
 21 23 0 0 0
SMALL
GASTEIGER

@<TRIPOS>ATOM
      1 C         137.9230  140.5114  163.1675 C.3     1  UNL1        0.0766
      2 C         138.3475  139.1634  163.6700 C.3     1  UNL1        0.0209
      3 C         139.1849  139.0547  164.9098 C.3     1  UNL1        0.0104
      4 C         139.5977  140.2940  165.6470 C.3     1  UNL1        0.0444
      5 C         139.1732  141.6421  165.1446 C.ar    1  UNL1       -0.0211
      6 C         139.5860  142.8814  165.8818 C.ar    1  UNL1       -0.0042
      7 C         139.1615  144.2295  165.3793 C.ar    1  UNL1       -0.0003
      8 C         138.3241  144.3382  164.1396 C.ar    1  UNL1       -0.0003
      9 C         137.9113  143.0989  163.4023 C.ar    1  UNL1       -0.0033
     10 C         138.3358  141.7508  163.9048 C.ar    1  UNL1       -0.0117
     11 C         140.4351  140.1853  166.8868 C.ar    1  UNL1       -0.0175
     12 C         141.9307  140.1424  166.7803 C.ar    1  UNL1       -0.0030
     13 C         142.7681  140.0337  168.0200 C.ar    1  UNL1        0.0119
     14 C         142.1099  139.9679  169.3663 C.ar    1  UNL1        0.0682
     15 CL        142.9473  139.8591  170.6060 Cl      1  UNL1       -0.0814
     16 C         140.6142  140.0107  169.4728 C.ar    1  UNL1        0.0679
     17 CL        139.9560  139.9449  170.8191 Cl      1  UNL1       -0.0814
     18 C         139.7769  140.1195  168.2331 C.ar    1  UNL1        0.0083
     19 C         137.4905  139.8882  160.6827 C.3     1  UNL1        0.0861
     20 N         137.0856  140.6201  161.9278 N.3     1  UNL1       -0.2940
     21 H         136.1522  140.2900  162.1730 H       1  UNL1        0.1235
@<TRIPOS>BOND
     1    19    20    1
     2     1    20    1
     3     1     2    1
     4     2     3    1
     5     3     4    1
     6     4    11    1
     7    11    12   ar
     8    12    13   ar
     9    13    14   ar
    10    14    15    1
    11    14    16   ar
    12    16    17    1
    13    16    18   ar
    14     4     5    1
    15     5     6   ar
    16     6     7   ar
    17     7     8   ar
    18     8     9   ar
    19     9    10   ar
    20    10     1    1
    21    18    11   ar
    22    10     5   ar
    23    20    21    1
@<TRIPOS>MOLECULE
*****
 21 23 0 0 0
SMALL
GASTEIGER

@<TRIPOS>ATOM
      1 C         140.7004  145.0030  163.5703 C.3     1  UNL1        0.0766
      2 C         139.3835  144.9183  164.2834 C.3     1  UNL1        0.0209
      3 C         139.2333  144.0227  165.4773 C.3     1  UNL1        0.0104
      4 C         140.4000  143.2119  165.9581 C.3     1  UNL1        0.0444
      5 C         141.7170  143.2965  165.2450 C.ar    1  UNL1       -0.0211
      6 C         142.8837  142.4857  165.7258 C.ar    1  UNL1       -0.0042
      7 C         144.2006  142.5704  165.0127 C.ar    1  UNL1       -0.0003
      8 C         144.3508  143.4660  163.8188 C.ar    1  UNL1       -0.0003
      9 C         143.1841  144.2768  163.3380 C.ar    1  UNL1       -0.0033
     10 C         141.8672  144.1921  164.0511 C.ar    1  UNL1       -0.0117
     11 C         140.2498  142.3163  167.1520 C.ar    1  UNL1       -0.0175
     12 C         139.8165  140.8917  166.9712 C.ar    1  UNL1       -0.0030
     13 C         139.6664  139.9961  168.1651 C.ar    1  UNL1        0.0119
     14 C         139.9495  140.5251  169.5398 C.ar    1  UNL1        0.0682
     15 CL        139.7993  139.6295  170.7337 Cl      1  UNL1       -0.0814
     16 C         140.3828  141.9498  169.7207 C.ar    1  UNL1        0.0679
     17 CL        140.6659  142.4788  171.0954 Cl      1  UNL1       -0.0814
     18 C         140.5330  142.8454  168.5268 C.ar    1  UNL1        0.0083
     19 C         139.6380  146.3340  161.6083 C.3     1  UNL1        0.0861
     20 N         140.8505  145.8986  162.3764 N.3     1  UNL1       -0.2940
     21 H         141.3137  146.7473  162.7014 H       1  UNL1        0.1235
@<TRIPOS>BOND
     1    19    20    1
     2     1    20    1
     3     1     2    1
     4     2     3    1
     5     3     4    1
     6     4    11    1
     7    11    12   ar
     8    12    13   ar
     9    13    14   ar
    10    14    15    1
    11    14    16   ar
    12    16    17    1
    13    16    18   ar
    14     4     5    1
    15     5     6   ar
    16     6     7   ar
    17     7     8   ar
    18     8     9   ar
    19     9    10   ar
    20    10     1    1
    21    18    11   ar
    22    10     5   ar
    23    20    21    1
@<TRIPOS>MOLECULE
*****
 21 23 0 0 0
SMALL
GASTEIGER

@<TRIPOS>ATOM
      1 C         137.8520  140.5022  163.0381 C.3     1  UNL1        0.0766
      2 C         138.2863  139.2535  163.7467 C.3     1  UNL1        0.0209
      3 C         139.0024  139.3477  165.0614 C.3     1  UNL1        0.0104
      4 C         139.2841  140.6905  165.6675 C.3     1  UNL1        0.0444
      5 C         138.8497  141.9393  164.9589 C.ar    1  UNL1       -0.0211
      6 C         139.1315  143.2821  165.5650 C.ar    1  UNL1       -0.0042
      7 C         138.6971  144.5308  164.8564 C.ar    1  UNL1       -0.0003
      8 C         137.9811  144.4366  163.5417 C.ar    1  UNL1       -0.0003
      9 C         137.6994  143.0938  162.9356 C.ar    1  UNL1       -0.0033
     10 C         138.1337  141.8451  163.6442 C.ar    1  UNL1       -0.0117
     11 C         140.0001  140.7847  166.9822 C.ar    1  UNL1       -0.0175
     12 C         139.4114  140.1446  168.2044 C.ar    1  UNL1       -0.0030
     13 C         140.1275  140.2388  169.5191 C.ar    1  UNL1        0.0119
     14 C         141.4322  140.9730  169.6116 C.ar    1  UNL1        0.0682
     15 CL        142.1482  141.0672  170.9263 Cl      1  UNL1       -0.0814
     16 C         142.0209  141.6131  168.3894 C.ar    1  UNL1        0.0679
     17 CL        143.3256  142.3474  168.4819 Cl      1  UNL1       -0.0814
     18 C         141.3049  141.5190  167.0747 C.ar    1  UNL1        0.0083
     19 C         137.7967  139.7371  160.5559 C.3     1  UNL1        0.0861
     20 N         137.1360  140.4080  161.7235 N.3     1  UNL1       -0.2940
     21 H         136.2654  139.9058  161.8976 H       1  UNL1        0.1235
@<TRIPOS>BOND
     1    19    20    1
     2     1    20    1
     3     1     2    1
     4     2     3    1
     5     3     4    1
     6     4    11    1
     7    11    12   ar
     8    12    13   ar
     9    13    14   ar
    10    14    15    1
    11    14    16   ar
    12    16    17    1
    13    16    18   ar
    14     4     5    1
    15     5     6   ar
    16     6     7   ar
    17     7     8   ar
    18     8     9   ar
    19     9    10   ar
    20    10     1    1
    21    18    11   ar
    22    10     5   ar
    23    20    21    1
@<TRIPOS>MOLECULE
*****
 21 23 0 0 0
SMALL
GASTEIGER

@<TRIPOS>ATOM
      1 C         143.4514  143.4900  163.7673 C.3     1  UNL1        0.0766
      2 C         144.0575  142.5436  164.7607 C.3     1  UNL1        0.0209
      3 C         143.2237  141.9977  165.8819 C.3     1  UNL1        0.0104
      4 C         141.7839  142.3984  166.0096 C.3     1  UNL1        0.0444
      5 C         141.1777  143.3448  165.0162 C.ar    1  UNL1       -0.0211
      6 C         139.7379  143.7455  165.1440 C.ar    1  UNL1       -0.0042
      7 C         139.1318  144.6919  164.1506 C.ar    1  UNL1       -0.0003
      8 C         139.9656  145.2377  163.0294 C.ar    1  UNL1       -0.0003
      9 C         141.4054  144.8371  162.9017 C.ar    1  UNL1       -0.0033
     10 C         142.0115  143.8907  163.8951 C.ar    1  UNL1       -0.0117
     11 C         140.9502  141.8525  167.1308 C.ar    1  UNL1       -0.0175
     12 C         140.2816  140.5175  166.9871 C.ar    1  UNL1       -0.0030
     13 C         139.4479  139.9717  168.1082 C.ar    1  UNL1        0.0119
     14 C         139.2827  140.7609  169.3730 C.ar    1  UNL1        0.0682
     15 CL        138.4490  140.2150  170.4942 Cl      1  UNL1       -0.0814
     16 C         139.9513  142.0959  169.5168 C.ar    1  UNL1        0.0679
     17 CL        139.7861  142.8851  170.7816 Cl      1  UNL1       -0.0814
     18 C         140.7850  142.6418  168.3957 C.ar    1  UNL1        0.0083
     19 C         144.4844  143.2285  161.3979 C.3     1  UNL1        0.0861
     20 N         144.2851  144.0359  162.6462 N.3     1  UNL1       -0.2940
     21 H         143.8561  144.9165  162.3619 H       1  UNL1        0.1235
@<TRIPOS>BOND
     1    19    20    1
     2     1    20    1
     3     1     2    1
     4     2     3    1
     5     3     4    1
     6     4    11    1
     7    11    12   ar
     8    12    13   ar
     9    13    14   ar
    10    14    15    1
    11    14    16   ar
    12    16    17    1
    13    16    18   ar
    14     4     5    1
    15     5     6   ar
    16     6     7   ar
    17     7     8   ar
    18     8     9   ar
    19     9    10   ar
    20    10     1    1
    21    18    11   ar
    22    10     5   ar
    23    20    21    1
@<TRIPOS>MOLECULE
*****
 21 23 0 0 0
SMALL
GASTEIGER

@<TRIPOS>ATOM
      1 C         142.8167  138.3219  163.1792 C.3     1  UNL1        0.0766
      2 C         143.9354  138.9973  163.9156 C.3     1  UNL1        0.0209
      3 C         143.6915  139.5867  165.2732 C.3     1  UNL1        0.0104
      4 C         142.3289  139.5008  165.8944 C.3     1  UNL1        0.0444
      5 C         141.2102  138.8253  165.1580 C.ar    1  UNL1       -0.0211
      6 C         139.8476  138.7394  165.7792 C.ar    1  UNL1       -0.0042
      7 C         138.7289  138.0640  165.0428 C.ar    1  UNL1       -0.0003
      8 C         138.9728  137.4745  163.6852 C.ar    1  UNL1       -0.0003
      9 C         140.3354  137.5605  163.0640 C.ar    1  UNL1       -0.0033
     10 C         141.4540  138.2359  163.8004 C.ar    1  UNL1       -0.0117
     11 C         142.0850  140.0902  167.2520 C.ar    1  UNL1       -0.0175
     12 C         142.5375  139.3574  168.4801 C.ar    1  UNL1       -0.0030
     13 C         142.2936  139.9469  169.8377 C.ar    1  UNL1        0.0119
     14 C         141.5973  141.2691  169.9672 C.ar    1  UNL1        0.0682
     15 CL        141.3534  141.8585  171.3248 Cl      1  UNL1       -0.0814
     16 C         141.1448  142.0019  168.7391 C.ar    1  UNL1        0.0679
     17 CL        140.4484  143.3241  168.8686 Cl      1  UNL1       -0.0814
     18 C         141.3886  141.4125  167.3815 C.ar    1  UNL1        0.0083
     19 C         143.9470  138.4443  160.8431 C.3     1  UNL1        0.0861
     20 N         143.0606  137.7325  161.8216 N.3     1  UNL1       -0.2940
     21 H         143.4679  136.8092  161.9703 H       1  UNL1        0.1235
@<TRIPOS>BOND
     1    19    20    1
     2     1    20    1
     3     1     2    1
     4     2     3    1
     5     3     4    1
     6     4    11    1
     7    11    12   ar
     8    12    13   ar
     9    13    14   ar
    10    14    15    1
    11    14    16   ar
    12    16    17    1
    13    16    18   ar
    14     4     5    1
    15     5     6   ar
    16     6     7   ar
    17     7     8   ar
    18     8     9   ar
    19     9    10   ar
    20    10     1    1
    21    18    11   ar
    22    10     5   ar
    23    20    21    1
@<TRIPOS>MOLECULE
*****
 21 23 0 0 0
SMALL
GASTEIGER

@<TRIPOS>ATOM
      1 C         139.3610  138.1274  163.8710 C.3     1  UNL1        0.0766
      2 C         138.6886  138.6345  165.1122 C.3     1  UNL1        0.0209
      3 C         139.4840  139.3720  166.1482 C.3     1  UNL1        0.0104
      4 C         140.9519  139.6025  165.9430 C.3     1  UNL1        0.0444
      5 C         141.6244  139.0954  164.7018 C.ar    1  UNL1       -0.0211
      6 C         143.0923  139.3259  164.4966 C.ar    1  UNL1       -0.0042
      7 C         143.7648  138.8188  163.2554 C.ar    1  UNL1       -0.0003
      8 C         142.9694  138.0812  162.2194 C.ar    1  UNL1       -0.0003
      9 C         141.5015  137.8507  162.4246 C.ar    1  UNL1       -0.0033
     10 C         140.8290  138.3578  163.6658 C.ar    1  UNL1       -0.0117
     11 C         141.7473  140.3401  166.9790 C.ar    1  UNL1       -0.0175
     12 C         142.2892  141.7056  166.6767 C.ar    1  UNL1       -0.0030
     13 C         143.0846  142.4432  167.7127 C.ar    1  UNL1        0.0119
     14 C         143.3381  141.8152  169.0511 C.ar    1  UNL1        0.0682
     15 CL        144.1335  142.5527  170.0871 Cl      1  UNL1       -0.0814
     16 C         142.7962  140.4495  169.3535 C.ar    1  UNL1        0.0679
     17 CL        143.0497  139.8215  170.6918 Cl      1  UNL1       -0.0814
     18 C         142.0008  139.7120  168.3175 C.ar    1  UNL1        0.0083
     19 C         137.8522  138.1493  161.7561 C.3     1  UNL1        0.0861
     20 N         138.5656  137.3898  162.8350 N.3     1  UNL1       -0.2940
     21 H         139.2099  136.7512  162.3687 H       1  UNL1        0.1235
@<TRIPOS>BOND
     1    19    20    1
     2     1    20    1
     3     1     2    1
     4     2     3    1
     5     3     4    1
     6     4    11    1
     7    11    12   ar
     8    12    13   ar
     9    13    14   ar
    10    14    15    1
    11    14    16   ar
    12    16    17    1
    13    16    18   ar
    14     4     5    1
    15     5     6   ar
    16     6     7   ar
    17     7     8   ar
    18     8     9   ar
    19     9    10   ar
    20    10     1    1
    21    18    11   ar
    22    10     5   ar
    23    20    21    1
@<TRIPOS>MOLECULE
*****
 21 23 0 0 0
SMALL
GASTEIGER

@<TRIPOS>ATOM
      1 C         142.4037  144.1127  162.4760 C.3     1  UNL1        0.0766
      2 C         143.6238  143.3118  162.8223 C.3     1  UNL1        0.0209
      3 C         143.6786  142.5484  164.1123 C.3     1  UNL1        0.0104
      4 C         142.5134  142.5858  165.0560 C.3     1  UNL1        0.0444
      5 C         141.2932  143.3867  164.7098 C.ar    1  UNL1       -0.0211
      6 C         140.1279  143.4241  165.6535 C.ar    1  UNL1       -0.0042
      7 C         138.9078  144.2249  165.3072 C.ar    1  UNL1       -0.0003
      8 C         138.8530  144.9884  164.0172 C.ar    1  UNL1       -0.0003
      9 C         140.0183  144.9510  163.0735 C.ar    1  UNL1       -0.0033
     10 C         141.2383  144.1501  163.4198 C.ar    1  UNL1       -0.0117
     11 C         142.5682  141.8223  166.3460 C.ar    1  UNL1       -0.0175
     12 C         142.0316  140.4232  166.4129 C.ar    1  UNL1       -0.0030
     13 C         142.0864  139.6598  167.7029 C.ar    1  UNL1        0.0119
     14 C         142.6778  140.2954  168.9261 C.ar    1  UNL1        0.0682
     15 CL        142.7326  139.5320  170.2161 Cl      1  UNL1       -0.0814
     16 C         143.2145  141.6946  168.8592 C.ar    1  UNL1        0.0679
     17 CL        143.8059  142.3303  170.0824 Cl      1  UNL1       -0.0814
     18 C         143.1597  142.4581  167.5692 C.ar    1  UNL1        0.0083
     19 C         141.8954  144.1940  159.9295 C.3     1  UNL1        0.0861
     20 N         142.3489  144.8762  161.1860 N.3     1  UNL1       -0.2940
     21 H         141.7193  145.6643  161.3368 H       1  UNL1        0.1235
@<TRIPOS>BOND
     1    19    20    1
     2     1    20    1
     3     1     2    1
     4     2     3    1
     5     3     4    1
     6     4    11    1
     7    11    12   ar
     8    12    13   ar
     9    13    14   ar
    10    14    15    1
    11    14    16   ar
    12    16    17    1
    13    16    18   ar
    14     4     5    1
    15     5     6   ar
    16     6     7   ar
    17     7     8   ar
    18     8     9   ar
    19     9    10   ar
    20    10     1    1
    21    18    11   ar
    22    10     5   ar
    23    20    21    1
@<TRIPOS>MOLECULE
*****
 21 23 0 0 0
SMALL
GASTEIGER

@<TRIPOS>ATOM
      1 C         138.4480  139.3147  167.0592 C.3     1  UNL1        0.0766
      2 C         138.5827  139.3602  165.5660 C.3     1  UNL1        0.0209
      3 C         139.5116  140.3492  164.9265 C.3     1  UNL1        0.0104
      4 C         140.3059  141.2927  165.7802 C.3     1  UNL1        0.0444
      5 C         140.1712  141.2473  167.2735 C.ar    1  UNL1       -0.0211
      6 C         140.9654  142.1909  168.1272 C.ar    1  UNL1       -0.0042
      7 C         140.8308  142.1454  169.6204 C.ar    1  UNL1       -0.0003
      8 C         139.9019  141.1564  170.2599 C.ar    1  UNL1       -0.0003
      9 C         139.1076  140.2128  169.4062 C.ar    1  UNL1       -0.0033
     10 C         139.2423  140.2583  167.9130 C.ar    1  UNL1       -0.0117
     11 C         141.2348  142.2818  165.1407 C.ar    1  UNL1       -0.0175
     12 C         140.7198  143.6217  164.7058 C.ar    1  UNL1       -0.0030
     13 C         141.6487  144.6108  164.0662 C.ar    1  UNL1        0.0119
     14 C         143.0926  144.2598  163.8616 C.ar    1  UNL1        0.0682
     15 CL        144.0215  145.2488  163.2221 Cl      1  UNL1       -0.0814
     16 C         143.6077  142.9197  164.2965 C.ar    1  UNL1        0.0679
     17 CL        145.0516  142.5688  164.0919 Cl      1  UNL1       -0.0814
     18 C         142.6787  141.9307  164.9360 C.ar    1  UNL1        0.0083
     19 C         137.2592  137.0047  167.0374 C.3     1  UNL1        0.0861
     20 N         137.5191  138.3257  167.6987 N.3     1  UNL1       -0.2940
     21 H         137.8971  138.1224  168.6240 H       1  UNL1        0.1235
@<TRIPOS>BOND
     1    19    20    1
     2     1    20    1
     3     1     2    1
     4     2     3    1
     5     3     4    1
     6     4    11    1
     7    11    12   ar
     8    12    13   ar
     9    13    14   ar
    10    14    15    1
    11    14    16   ar
    12    16    17    1
    13    16    18   ar
    14     4     5    1
    15     5     6   ar
    16     6     7   ar
    17     7     8   ar
    18     8     9   ar
    19     9    10   ar
    20    10     1    1
    21    18    11   ar
    22    10     5   ar
    23    20    21    1
@<TRIPOS>MOLECULE
*****
 21 23 0 0 0
SMALL
GASTEIGER

@<TRIPOS>ATOM
      1 C         141.9880  144.4131  162.6347 C.3     1  UNL1        0.0766
      2 C         140.9478  144.5429  163.7076 C.3     1  UNL1        0.0209
      3 C         141.0221  143.6804  164.9326 C.3     1  UNL1        0.0104
      4 C         142.1367  142.6882  165.0847 C.3     1  UNL1        0.0444
      5 C         143.1769  142.5583  164.0118 C.ar    1  UNL1       -0.0211
      6 C         144.2915  141.5661  164.1639 C.ar    1  UNL1       -0.0042
      7 C         145.3317  141.4363  163.0910 C.ar    1  UNL1       -0.0003
      8 C         145.2573  142.2988  161.8660 C.ar    1  UNL1       -0.0003
      9 C         144.1428  143.2910  161.7139 C.ar    1  UNL1       -0.0033
     10 C         143.1026  143.4208  162.7868 C.ar    1  UNL1       -0.0117
     11 C         142.2110  141.8257  166.3097 C.ar    1  UNL1       -0.0175
     12 C         141.5580  140.4754  166.3170 C.ar    1  UNL1       -0.0030
     13 C         141.6323  139.6129  167.5420 C.ar    1  UNL1        0.0119
     14 C         142.3597  140.1008  168.7597 C.ar    1  UNL1        0.0682
     15 CL        142.4341  139.2383  169.9847 Cl      1  UNL1       -0.0814
     16 C         143.0129  141.4512  168.7524 C.ar    1  UNL1        0.0679
     17 CL        143.7403  141.9390  169.9701 Cl      1  UNL1       -0.0814
     18 C         142.9385  142.3136  167.5274 C.ar    1  UNL1        0.0083
     19 C         140.7158  145.1989  160.5101 C.3     1  UNL1        0.0861
     20 N         141.9136  145.2756  161.4097 N.3     1  UNL1       -0.2940
     21 H         141.9829  146.2428  161.7260 H       1  UNL1        0.1235
@<TRIPOS>BOND
     1    19    20    1
     2     1    20    1
     3     1     2    1
     4     2     3    1
     5     3     4    1
     6     4    11    1
     7    11    12   ar
     8    12    13   ar
     9    13    14   ar
    10    14    15    1
    11    14    16   ar
    12    16    17    1
    13    16    18   ar
    14     4     5    1
    15     5     6   ar
    16     6     7   ar
    17     7     8   ar
    18     8     9   ar
    19     9    10   ar
    20    10     1    1
    21    18    11   ar
    22    10     5   ar
    23    20    21    1
