@<TRIPOS>MOLECULE
*****
 33 36 0 0 0
SMALL
GASTEIGER

@<TRIPOS>ATOM
      1 N         137.6719  140.6297  161.4029 N.pl3   1  UNL1       -0.2825
      2 H         136.6999  140.5263  161.2858 H       1  UNL1        0.1551
      3 C         141.1558  144.6222  160.8140 C.ar    1  UNL1        0.1554
      4 N         141.5618  145.3463  159.5647 N.ar    1  UNL1       -0.1646
      5 N         140.8000  144.7532  158.4168 N.ar    1  UNL1       -0.2487
      6 C         140.8978  145.1764  156.9811 C.3     1  UNL1        0.1537
      7 C         139.9231  143.6624  158.9566 C.ar    1  UNL1        0.0796
      8 C         138.9528  142.7325  158.2905 C.ar    1  UNL1        0.0201
      9 C         138.2025  141.7216  159.1059 C.ar    1  UNL1        0.0162
     10 C         138.4224  141.6406  160.5875 C.ar    1  UNL1        0.0506
     11 C         139.3926  142.5706  161.2536 C.ar    1  UNL1        0.0179
     12 C         140.1430  143.5815  160.4382 C.ar    1  UNL1        0.0423
     13 C         143.6658  145.2006  163.8332 C.3     1  UNL1        0.1110
     14 N         143.1497  144.9314  162.4508 N.am    1  UNL1       -0.2979
     15 C         141.6719  144.8914  162.1964 C.2     1  UNL1        0.2654
     16 O         140.7103  145.1207  163.3246 O.2     1  UNL1       -0.2684
     17 H         143.7809  144.7809  161.7103 H       1  UNL1        0.1498
     18 C         138.4025  139.7763  162.3968 C.ar    1  UNL1        0.2207
     19 N         138.8804  138.4097  162.0041 N.ar    1  UNL1       -0.2120
     20 C         139.6110  137.5563  162.9981 C.ar    1  UNL1        0.1034
     21 C         139.8637  138.0694  164.3847 C.ar    1  UNL1        0.0415
     22 C         139.3857  139.4359  164.7775 C.ar    1  UNL1        0.1050
     23 N         138.6552  140.2893  163.7836 N.ar    1  UNL1       -0.2120
     24 C         139.6384  139.9490  166.1642 C.ar    1  UNL1        0.1198
     25 C         140.7152  140.9133  166.5649 C.ar    1  UNL1        0.0381
     26 C         140.6009  141.1481  168.0420 C.ar    1  UNL1        0.0734
     27 N         139.4534  140.3290  168.5541 N.ar    1  UNL1       -0.2515
     28 C         138.9833  140.2626  169.9770 C.3     1  UNL1        0.1534
     29 N         138.8585  139.5879  167.3935 N.ar    1  UNL1       -0.1680
     30 C         141.4798  142.0447  168.8628 C.3     1  UNL1        0.1184
     31 N         142.6920  141.4852  169.5466 N.3     1  UNL1       -0.2652
     32 C         143.8745  142.3674  169.8174 C.3     1  UNL1        0.0900
     33 C         142.7216  140.0434  169.9596 C.3     1  UNL1        0.0900
@<TRIPOS>BOND
     1    13    14    1
     2    14    15   am
     3    15    16    2
     4    15     3    1
     5     3     4   ar
     6     4     5   ar
     7     5     6    1
     8     5     7   ar
     9     7     8   ar
    10     8     9   ar
    11     9    10   ar
    12    10     1    1
    13     1    18    1
    14    18    19   ar
    15    19    20   ar
    16    20    21   ar
    17    21    22   ar
    18    22    24    1
    19    24    25   ar
    20    25    26   ar
    21    26    30    1
    22    30    31    1
    23    31    32    1
    24    31    33    1
    25    26    27   ar
    26    27    28    1
    27    27    29   ar
    28    22    23   ar
    29    10    11   ar
    30    11    12   ar
    31    12     3   ar
    32    12     7   ar
    33    23    18   ar
    34    29    24   ar
    35    14    17    1
    36     1     2    1
@<TRIPOS>MOLECULE
*****
 33 36 0 0 0
SMALL
GASTEIGER

@<TRIPOS>ATOM
      1 N         142.3735  144.9583  161.7024 N.pl3   1  UNL1       -0.2825
      2 H         142.4420  145.9122  161.9363 H       1  UNL1        0.1551
      3 C         138.4993  141.9078  159.6755 C.ar    1  UNL1        0.1554
      4 N         137.9020  141.9278  158.2996 N.ar    1  UNL1       -0.1646
      5 N         138.5917  143.0010  157.5106 N.ar    1  UNL1       -0.2487
      6 C         138.3077  143.3667  156.0838 C.3     1  UNL1        0.1537
      7 C         139.6151  143.6442  158.3987 C.ar    1  UNL1        0.0796
      8 C         140.5916  144.7579  158.1619 C.ar    1  UNL1        0.0201
      9 C         141.5111  145.1959  159.2632 C.ar    1  UNL1        0.0162
     10 C         141.4540  144.5202  160.6012 C.ar    1  UNL1        0.0506
     11 C         140.4774  143.4066  160.8379 C.ar    1  UNL1        0.0179
     12 C         139.5580  142.9686  159.7367 C.ar    1  UNL1        0.0423
     13 C         138.0162  138.6025  161.8185 C.3     1  UNL1        0.1110
     14 N         138.4088  139.5220  160.7002 N.am    1  UNL1       -0.2979
     15 C         138.1067  140.9883  160.7937 C.2     1  UNL1        0.2654
     16 O         137.4122  141.5351  162.0055 O.2     1  UNL1       -0.2684
     17 H         138.8646  139.1630  159.9049 H       1  UNL1        0.1498
     18 C         143.1886  143.9431  162.4473 C.ar    1  UNL1        0.2207
     19 N         144.3892  143.3219  161.7972 N.ar    1  UNL1       -0.2120
     20 C         145.2043  142.3067  162.5421 C.ar    1  UNL1        0.1034
     21 C         144.8188  141.9125  163.9371 C.ar    1  UNL1        0.0415
     22 C         143.6181  142.5336  164.5872 C.ar    1  UNL1        0.1050
     23 N         142.8030  143.5489  163.8423 N.ar    1  UNL1       -0.2120
     24 C         143.2325  142.1395  165.9821 C.ar    1  UNL1        0.1198
     25 C         142.3280  141.0039  166.3594 C.ar    1  UNL1        0.0381
     26 C         142.2202  140.9743  167.8552 C.ar    1  UNL1        0.0734
     27 N         143.0582  142.0917  168.4024 N.ar    1  UNL1       -0.2515
     28 C         143.2387  142.4296  169.8527 C.3     1  UNL1        0.1534
     29 N         143.6838  142.8118  167.2448 N.ar    1  UNL1       -0.1680
     30 C         141.4158  139.9987  168.6621 C.3     1  UNL1        0.1184
     31 N         139.9213  140.1178  168.7104 N.3     1  UNL1       -0.2652
     32 C         139.0912  139.6090  167.5693 C.3     1  UNL1        0.0900
     33 C         139.2570  140.7456  169.8998 C.3     1  UNL1        0.0900
@<TRIPOS>BOND
     1    13    14    1
     2    14    15   am
     3    15    16    2
     4    15     3    1
     5     3     4   ar
     6     4     5   ar
     7     5     6    1
     8     5     7   ar
     9     7     8   ar
    10     8     9   ar
    11     9    10   ar
    12    10     1    1
    13     1    18    1
    14    18    19   ar
    15    19    20   ar
    16    20    21   ar
    17    21    22   ar
    18    22    24    1
    19    24    25   ar
    20    25    26   ar
    21    26    30    1
    22    30    31    1
    23    31    32    1
    24    31    33    1
    25    26    27   ar
    26    27    28    1
    27    27    29   ar
    28    22    23   ar
    29    10    11   ar
    30    11    12   ar
    31    12     3   ar
    32    12     7   ar
    33    23    18   ar
    34    29    24   ar
    35    14    17    1
    36     1     2    1
@<TRIPOS>MOLECULE
*****
 33 36 0 0 0
SMALL
GASTEIGER

@<TRIPOS>ATOM
      1 N         143.9766  140.8589  161.4660 N.pl3   1  UNL1       -0.2825
      2 H         144.9579  140.7843  161.4380 H       1  UNL1        0.1551
      3 C         140.1911  144.5664  160.8754 C.ar    1  UNL1        0.1554
      4 N         139.9644  145.5129  159.7340 N.ar    1  UNL1       -0.1646
      5 N         141.0241  145.2584  158.7034 N.ar    1  UNL1       -0.2487
      6 C         141.1756  145.9809  157.3976 C.3     1  UNL1        0.1537
      7 C         141.9058  144.1546  159.2077 C.ar    1  UNL1        0.0796
      8 C         143.1108  143.4838  158.6181 C.ar    1  UNL1        0.0201
      9 C         143.8011  142.3853  159.3708 C.ar    1  UNL1        0.0162
     10 C         143.2863  141.9576  160.7132 C.ar    1  UNL1        0.0506
     11 C         142.0812  142.6284  161.3029 C.ar    1  UNL1        0.0179
     12 C         141.3910  143.7269  160.5501 C.ar    1  UNL1        0.0423
     13 C         139.1224  144.7871  164.6911 C.3     1  UNL1        0.1110
     14 N         139.9501  144.8783  163.4435 N.am    1  UNL1       -0.2979
     15 C         139.3634  144.4753  162.1230 C.2     1  UNL1        0.2654
     16 O         137.9490  143.9812  162.0503 O.2     1  UNL1       -0.2684
     17 H         140.8785  145.2025  163.4912 H       1  UNL1        0.1498
     18 C         143.1719  139.8742  162.2613 C.ar    1  UNL1        0.2207
     19 N         142.6859  138.6093  161.6179 N.ar    1  UNL1       -0.2120
     20 C         141.8811  137.6245  162.4133 C.ar    1  UNL1        0.1034
     21 C         141.5624  137.9046  163.8520 C.ar    1  UNL1        0.0415
     22 C         142.0484  139.1694  164.4954 C.ar    1  UNL1        0.1050
     23 N         142.8531  140.1542  163.7001 N.ar    1  UNL1       -0.2120
     24 C         141.7297  139.4495  165.9341 C.ar    1  UNL1        0.1198
     25 C         142.7238  139.5622  167.0517 C.ar    1  UNL1        0.0381
     26 C         141.9694  139.8484  168.3162 C.ar    1  UNL1        0.0734
     27 N         140.5089  139.9126  167.9800 N.ar    1  UNL1       -0.2515
     28 C         139.3926  140.1770  168.9465 C.3     1  UNL1        0.1534
     29 N         140.3608  139.6661  166.5079 N.ar    1  UNL1       -0.1680
     30 C         142.5700  140.0372  169.6776 C.3     1  UNL1        0.1184
     31 N         142.7183  141.4170  170.2472 N.3     1  UNL1       -0.2652
     32 C         141.7429  141.9139  171.2727 C.3     1  UNL1        0.0900
     33 C         143.8420  142.2999  169.7911 C.3     1  UNL1        0.0900
@<TRIPOS>BOND
     1    13    14    1
     2    14    15   am
     3    15    16    2
     4    15     3    1
     5     3     4   ar
     6     4     5   ar
     7     5     6    1
     8     5     7   ar
     9     7     8   ar
    10     8     9   ar
    11     9    10   ar
    12    10     1    1
    13     1    18    1
    14    18    19   ar
    15    19    20   ar
    16    20    21   ar
    17    21    22   ar
    18    22    24    1
    19    24    25   ar
    20    25    26   ar
    21    26    30    1
    22    30    31    1
    23    31    32    1
    24    31    33    1
    25    26    27   ar
    26    27    28    1
    27    27    29   ar
    28    22    23   ar
    29    10    11   ar
    30    11    12   ar
    31    12     3   ar
    32    12     7   ar
    33    23    18   ar
    34    29    24   ar
    35    14    17    1
    36     1     2    1
@<TRIPOS>MOLECULE
*****
 33 36 0 0 0
SMALL
GASTEIGER

@<TRIPOS>ATOM
      1 N         141.2736  145.5498  162.0433 N.pl3   1  UNL1       -0.2825
      2 H         141.2337  146.5293  162.1346 H       1  UNL1        0.1551
      3 C         138.4330  141.7141  159.6680 C.ar    1  UNL1        0.1554
      4 N         138.1092  141.5401  158.2137 N.ar    1  UNL1       -0.1646
      5 N         138.7383  142.6742  157.4599 N.ar    1  UNL1       -0.2487
      6 C         138.6673  142.8946  155.9779 C.3     1  UNL1        0.1537
      7 C         139.4508  143.5490  158.4483 C.ar    1  UNL1        0.0796
      8 C         140.2471  144.8093  158.2819 C.ar    1  UNL1        0.0201
      9 C         140.8546  145.4762  159.4803 C.ar    1  UNL1        0.0162
     10 C         140.6660  144.8829  160.8449 C.ar    1  UNL1        0.0506
     11 C         139.8697  143.6226  161.0113 C.ar    1  UNL1        0.0179
     12 C         139.2621  142.9557  159.8130 C.ar    1  UNL1        0.0423
     13 C         137.8466  138.4254  161.8106 C.3     1  UNL1        0.1110
     14 N         138.2765  139.3335  160.6968 N.am    1  UNL1       -0.2979
     15 C         138.0031  140.8060  160.7818 C.2     1  UNL1        0.2654
     16 O         137.2998  141.3702  161.9805 O.2     1  UNL1       -0.2684
     17 H         138.7381  138.9631  159.9101 H       1  UNL1        0.1498
     18 C         141.9420  144.7245  163.1026 C.ar    1  UNL1        0.2207
     19 N         143.4145  144.8697  163.3485 N.ar    1  UNL1       -0.2120
     20 C         144.0829  144.0443  164.4079 C.ar    1  UNL1        0.1034
     21 C         143.2787  143.0738  165.2211 C.ar    1  UNL1        0.0415
     22 C         141.8062  142.9287  164.9752 C.ar    1  UNL1        0.1050
     23 N         141.1378  143.7540  163.9159 N.ar    1  UNL1       -0.2120
     24 C         141.0020  141.9582  165.7884 C.ar    1  UNL1        0.1198
     25 C         141.1075  141.7498  167.2701 C.ar    1  UNL1        0.0381
     26 C         140.1218  140.6885  167.6603 C.ar    1  UNL1        0.0734
     27 N         139.4072  140.2411  166.4196 N.ar    1  UNL1       -0.2515
     28 C         138.3365  139.1929  166.3484 C.3     1  UNL1        0.1534
     29 N         139.9512  141.0258  165.2628 N.ar    1  UNL1       -0.1680
     30 C         139.8913  140.1664  169.0474 C.3     1  UNL1        0.1184
     31 N         141.0131  140.1619  170.0432 N.3     1  UNL1       -0.2652
     32 C         142.1708  139.2250  169.8645 C.3     1  UNL1        0.0900
     33 C         140.9771  141.0943  171.2177 C.3     1  UNL1        0.0900
@<TRIPOS>BOND
     1    13    14    1
     2    14    15   am
     3    15    16    2
     4    15     3    1
     5     3     4   ar
     6     4     5   ar
     7     5     6    1
     8     5     7   ar
     9     7     8   ar
    10     8     9   ar
    11     9    10   ar
    12    10     1    1
    13     1    18    1
    14    18    19   ar
    15    19    20   ar
    16    20    21   ar
    17    21    22   ar
    18    22    24    1
    19    24    25   ar
    20    25    26   ar
    21    26    30    1
    22    30    31    1
    23    31    32    1
    24    31    33    1
    25    26    27   ar
    26    27    28    1
    27    27    29   ar
    28    22    23   ar
    29    10    11   ar
    30    11    12   ar
    31    12     3   ar
    32    12     7   ar
    33    23    18   ar
    34    29    24   ar
    35    14    17    1
    36     1     2    1
@<TRIPOS>MOLECULE
*****
 33 36 0 0 0
SMALL
GASTEIGER

@<TRIPOS>ATOM
      1 N         137.3859  141.0222  162.3823 N.pl3   1  UNL1       -0.2825
      2 H         136.4102  141.1278  162.4610 H       1  UNL1        0.1551
      3 C         138.8132  142.7916  157.5599 C.ar    1  UNL1        0.1554
      4 N         139.7883  143.8730  157.1999 N.ar    1  UNL1       -0.1646
      5 N         140.3507  144.4326  158.4729 N.ar    1  UNL1       -0.2487
      6 C         141.3629  145.5344  158.5803 C.3     1  UNL1        0.1537
      7 C         139.7232  143.6970  159.6197 C.ar    1  UNL1        0.0796
      8 C         139.8943  143.8196  161.1048 C.ar    1  UNL1        0.0201
      9 C         139.1152  142.9280  162.0257 C.ar    1  UNL1        0.0162
     10 C         138.1650  141.9138  161.4614 C.ar    1  UNL1        0.0506
     11 C         137.9939  141.7911  159.9763 C.ar    1  UNL1        0.0179
     12 C         138.7730  142.6827  159.0554 C.ar    1  UNL1        0.0423
     13 C         135.7245  141.2112  155.6331 C.3     1  UNL1        0.1110
     14 N         136.5197  142.0386  156.5990 N.am    1  UNL1       -0.2979
     15 C         138.0180  141.9641  156.5940 C.2     1  UNL1        0.2654
     16 O         138.7207  141.0623  155.6232 O.2     1  UNL1       -0.2684
     17 H         136.0584  142.6306  157.2362 H       1  UNL1        0.1498
     18 C         138.0932  139.9696  163.1834 C.ar    1  UNL1        0.2207
     19 N         138.2544  138.5859  162.6273 N.ar    1  UNL1       -0.2120
     20 C         138.9618  137.5333  163.4285 C.ar    1  UNL1        0.1034
     21 C         139.5081  137.8645  164.7856 C.ar    1  UNL1        0.0415
     22 C         139.3470  139.2483  165.3416 C.ar    1  UNL1        0.1050
     23 N         138.6396  140.3009  164.5406 N.ar    1  UNL1       -0.2120
     24 C         139.8932  139.5796  166.6988 C.ar    1  UNL1        0.1198
     25 C         141.3080  139.9701  167.0085 C.ar    1  UNL1        0.0381
     26 C         141.4098  140.2104  168.4856 C.ar    1  UNL1        0.0734
     27 N         140.0579  139.9683  169.0888 N.ar    1  UNL1       -0.2515
     28 C         139.7053  140.0940  170.5413 C.3     1  UNL1        0.1534
     29 N         139.1207  139.5784  167.9845 N.ar    1  UNL1       -0.1680
     30 C         142.6464  140.6207  169.2289 C.3     1  UNL1        0.1184
     31 N         142.8637  142.0614  169.5856 N.3     1  UNL1       -0.2652
     32 C         144.2375  142.5466  169.9425 C.3     1  UNL1        0.0900
     33 C         141.7073  143.0168  169.5853 C.3     1  UNL1        0.0900
@<TRIPOS>BOND
     1    13    14    1
     2    14    15   am
     3    15    16    2
     4    15     3    1
     5     3     4   ar
     6     4     5   ar
     7     5     6    1
     8     5     7   ar
     9     7     8   ar
    10     8     9   ar
    11     9    10   ar
    12    10     1    1
    13     1    18    1
    14    18    19   ar
    15    19    20   ar
    16    20    21   ar
    17    21    22   ar
    18    22    24    1
    19    24    25   ar
    20    25    26   ar
    21    26    30    1
    22    30    31    1
    23    31    32    1
    24    31    33    1
    25    26    27   ar
    26    27    28    1
    27    27    29   ar
    28    22    23   ar
    29    10    11   ar
    30    11    12   ar
    31    12     3   ar
    32    12     7   ar
    33    23    18   ar
    34    29    24   ar
    35    14    17    1
    36     1     2    1
@<TRIPOS>MOLECULE
*****
 33 36 0 0 0
SMALL
GASTEIGER

@<TRIPOS>ATOM
      1 N         137.9108  140.6422  161.8408 N.pl3   1  UNL1       -0.2825
      2 H         137.0007  140.2686  161.8030 H       1  UNL1        0.1551
      3 C         142.9656  139.0828  161.1766 C.ar    1  UNL1        0.1554
      4 N         143.5897  138.3676  160.0151 N.ar    1  UNL1       -0.1646
      5 N         142.5222  138.1317  158.9881 N.ar    1  UNL1       -0.2487
      6 C         142.7062  137.4467  157.6664 C.3     1  UNL1        0.1537
      7 C         141.2383  138.7012  159.5148 C.ar    1  UNL1        0.0796
      8 C         139.8551  138.7604  158.9376 C.ar    1  UNL1        0.0201
      9 C         138.7460  139.4074  159.7129 C.ar    1  UNL1        0.0162
     10 C         139.0200  139.9952  161.0655 C.ar    1  UNL1        0.0506
     11 C         140.4032  139.9359  161.6427 C.ar    1  UNL1        0.0179
     12 C         141.5123  139.2889  160.8674 C.ar    1  UNL1        0.0423
     13 C         145.5111  140.9264  163.5997 C.3     1  UNL1        0.1110
     14 N         144.8058  140.4934  162.3487 N.am    1  UNL1       -0.2979
     15 C         143.6708  139.5158  162.4276 C.2     1  UNL1        0.2654
     16 O         143.2413  138.9712  163.7576 O.2     1  UNL1       -0.2684
     17 H         145.0878  140.8509  161.4758 H       1  UNL1        0.1498
     18 C         138.1882  141.8585  162.6737 C.ar    1  UNL1        0.2207
     19 N         137.7955  143.2165  162.1721 N.ar    1  UNL1       -0.2120
     20 C         138.0729  144.4328  163.0051 C.ar    1  UNL1        0.1034
     21 C         138.7430  144.2910  164.3396 C.ar    1  UNL1        0.0415
     22 C         139.1356  142.9329  164.8412 C.ar    1  UNL1        0.1050
     23 N         138.8583  141.7167  164.0083 N.ar    1  UNL1       -0.2120
     24 C         139.8057  142.7912  166.1756 C.ar    1  UNL1        0.1198
     25 C         140.7709  141.7118  166.5674 C.ar    1  UNL1        0.0381
     26 C         141.1899  141.9574  167.9865 C.ar    1  UNL1        0.0734
     27 N         140.4837  143.1886  168.4719 N.ar    1  UNL1       -0.2515
     28 C         140.6107  143.7975  169.8369 C.3     1  UNL1        0.1534
     29 N         139.6282  143.7038  167.3527 N.ar    1  UNL1       -0.1680
     30 C         142.1471  141.1191  168.7809 C.3     1  UNL1        0.1184
     31 N         141.6292  140.0235  169.6650 N.3     1  UNL1       -0.2652
     32 C         142.5110  138.8612  170.0137 C.3     1  UNL1        0.0900
     33 C         140.2295  140.0902  170.2003 C.3     1  UNL1        0.0900
@<TRIPOS>BOND
     1    13    14    1
     2    14    15   am
     3    15    16    2
     4    15     3    1
     5     3     4   ar
     6     4     5   ar
     7     5     6    1
     8     5     7   ar
     9     7     8   ar
    10     8     9   ar
    11     9    10   ar
    12    10     1    1
    13     1    18    1
    14    18    19   ar
    15    19    20   ar
    16    20    21   ar
    17    21    22   ar
    18    22    24    1
    19    24    25   ar
    20    25    26   ar
    21    26    30    1
    22    30    31    1
    23    31    32    1
    24    31    33    1
    25    26    27   ar
    26    27    28    1
    27    27    29   ar
    28    22    23   ar
    29    10    11   ar
    30    11    12   ar
    31    12     3   ar
    32    12     7   ar
    33    23    18   ar
    34    29    24   ar
    35    14    17    1
    36     1     2    1
@<TRIPOS>MOLECULE
*****
 33 36 0 0 0
SMALL
GASTEIGER

@<TRIPOS>ATOM
      1 N         138.8130  137.6956  163.6428 N.pl3   1  UNL1       -0.2825
      2 H         138.7075  136.7170  163.6629 H       1  UNL1        0.1551
      3 C         141.8783  140.7985  166.7087 C.ar    1  UNL1        0.1554
      4 N         141.6265  141.2961  168.1012 N.ar    1  UNL1       -0.1646
      5 N         140.2976  140.7646  168.5501 N.ar    1  UNL1       -0.2487
      6 C         139.6517  141.0151  169.8805 C.3     1  UNL1        0.1537
      7 C         139.7281  139.9385  167.4351 C.ar    1  UNL1        0.0796
      8 C         138.4462  139.1699  167.3091 C.ar    1  UNL1        0.0201
      9 C         138.1412  138.4223  166.0450 C.ar    1  UNL1        0.0162
     10 C         139.1181  138.4433  164.9069 C.ar    1  UNL1        0.0506
     11 C         140.4000  139.2119  165.0329 C.ar    1  UNL1        0.0179
     12 C         140.7050  139.9595  166.2971 C.ar    1  UNL1        0.0423
     13 C         144.9598  140.2775  164.2626 C.3     1  UNL1        0.1110
     14 N         143.7476  139.9870  165.0970 N.am    1  UNL1       -0.2979
     15 C         143.0905  141.0890  165.8744 C.2     1  UNL1        0.2654
     16 O         143.6457  142.4812  165.8173 O.2     1  UNL1       -0.2684
     17 H         143.3832  139.0732  165.1345 H       1  UNL1        0.1498
     18 C         138.6687  138.4390  162.3480 C.ar    1  UNL1        0.2207
     19 N         137.7407  139.6140  162.2571 N.ar    1  UNL1       -0.2120
     20 C         137.5964  140.3574  160.9623 C.ar    1  UNL1        0.1034
     21 C         138.3801  139.9258  159.7583 C.ar    1  UNL1        0.0415
     22 C         139.3081  138.7508  159.8492 C.ar    1  UNL1        0.1050
     23 N         139.4524  138.0075  161.1439 N.ar    1  UNL1       -0.2120
     24 C         140.0918  138.3192  158.6452 C.ar    1  UNL1        0.1198
     25 C         141.5829  138.3817  158.4950 C.ar    1  UNL1        0.0381
     26 C         141.9347  137.8505  157.1370 C.ar    1  UNL1        0.0734
     27 N         140.6608  137.4597  156.4480 N.ar    1  UNL1       -0.2515
     28 C         140.5461  136.8808  155.0689 C.3     1  UNL1        0.1534
     29 N         139.5219  137.7494  157.3801 N.ar    1  UNL1       -0.1680
     30 C         143.3174  137.7309  156.5680 C.3     1  UNL1        0.1184
     31 N         143.9911  138.9331  155.9756 N.3     1  UNL1       -0.2652
     32 C         144.3187  138.9642  154.5122 C.3     1  UNL1        0.0900
     33 C         144.3372  140.1042  156.8468 C.3     1  UNL1        0.0900
@<TRIPOS>BOND
     1    13    14    1
     2    14    15   am
     3    15    16    2
     4    15     3    1
     5     3     4   ar
     6     4     5   ar
     7     5     6    1
     8     5     7   ar
     9     7     8   ar
    10     8     9   ar
    11     9    10   ar
    12    10     1    1
    13     1    18    1
    14    18    19   ar
    15    19    20   ar
    16    20    21   ar
    17    21    22   ar
    18    22    24    1
    19    24    25   ar
    20    25    26   ar
    21    26    30    1
    22    30    31    1
    23    31    32    1
    24    31    33    1
    25    26    27   ar
    26    27    28    1
    27    27    29   ar
    28    22    23   ar
    29    10    11   ar
    30    11    12   ar
    31    12     3   ar
    32    12     7   ar
    33    23    18   ar
    34    29    24   ar
    35    14    17    1
    36     1     2    1
@<TRIPOS>MOLECULE
*****
 33 36 0 0 0
SMALL
GASTEIGER

@<TRIPOS>ATOM
      1 N         138.8372  137.7667  163.5987 N.pl3   1  UNL1       -0.2825
      2 H         138.7563  136.7856  163.5895 H       1  UNL1        0.1551
      3 C         141.7036  140.9221  166.8004 C.ar    1  UNL1        0.1554
      4 N         141.4124  141.3584  168.2057 N.ar    1  UNL1       -0.1646
      5 N         140.1094  140.7426  168.6217 N.ar    1  UNL1       -0.2487
      6 C         139.4384  140.9136  169.9522 C.3     1  UNL1        0.1537
      7 C         139.5953  139.9256  167.4735 C.ar    1  UNL1        0.0796
      8 C         138.3574  139.0951  167.3075 C.ar    1  UNL1        0.0201
      9 C         138.1047  138.3755  166.0159 C.ar    1  UNL1        0.0162
     10 C         139.0899  138.4864  164.8903 C.ar    1  UNL1        0.0506
     11 C         140.3279  139.3170  165.0563 C.ar    1  UNL1        0.0179
     12 C         140.5806  140.0366  166.3479 C.ar    1  UNL1        0.0423
     13 C         144.5085  143.1276  165.0630 C.3     1  UNL1        0.1110
     14 N         143.3055  142.7455  165.8735 N.am    1  UNL1       -0.2979
     15 C         142.9065  141.3042  165.9899 C.2     1  UNL1        0.2654
     16 O         143.7106  140.2451  165.2959 O.2     1  UNL1       -0.2684
     17 H         142.7778  143.4407  166.3290 H       1  UNL1        0.1498
     18 C         138.7076  138.5419  162.3211 C.ar    1  UNL1        0.2207
     19 N         137.7139  139.6610  162.2204 N.ar    1  UNL1       -0.2120
     20 C         137.5844  140.4363  160.9427 C.ar    1  UNL1        0.1034
     21 C         138.4484  140.0923  159.7659 C.ar    1  UNL1        0.0415
     22 C         139.4421  138.9732  159.8666 C.ar    1  UNL1        0.1050
     23 N         139.5717  138.1980  161.1442 N.ar    1  UNL1       -0.2120
     24 C         140.3062  138.6292  158.6898 C.ar    1  UNL1        0.1198
     25 C         140.0172  137.5759  157.6616 C.ar    1  UNL1        0.0381
     26 C         141.1434  137.5739  156.6708 C.ar    1  UNL1        0.0734
     27 N         142.1285  138.6259  157.0867 N.ar    1  UNL1       -0.2515
     28 C         143.4066  138.9660  156.3790 C.3     1  UNL1        0.1534
     29 N         141.6110  139.2781  158.3344 N.ar    1  UNL1       -0.1680
     30 C         141.2634  136.6773  155.4743 C.3     1  UNL1        0.1184
     31 N         141.8242  135.2944  155.6266 N.3     1  UNL1       -0.2652
     32 C         141.2963  134.1737  154.7808 C.3     1  UNL1        0.0900
     33 C         142.9128  135.0322  156.6248 C.3     1  UNL1        0.0900
@<TRIPOS>BOND
     1    13    14    1
     2    14    15   am
     3    15    16    2
     4    15     3    1
     5     3     4   ar
     6     4     5   ar
     7     5     6    1
     8     5     7   ar
     9     7     8   ar
    10     8     9   ar
    11     9    10   ar
    12    10     1    1
    13     1    18    1
    14    18    19   ar
    15    19    20   ar
    16    20    21   ar
    17    21    22   ar
    18    22    24    1
    19    24    25   ar
    20    25    26   ar
    21    26    30    1
    22    30    31    1
    23    31    32    1
    24    31    33    1
    25    26    27   ar
    26    27    28    1
    27    27    29   ar
    28    22    23   ar
    29    10    11   ar
    30    11    12   ar
    31    12     3   ar
    32    12     7   ar
    33    23    18   ar
    34    29    24   ar
    35    14    17    1
    36     1     2    1
@<TRIPOS>MOLECULE
*****
 33 36 0 0 0
SMALL
GASTEIGER

@<TRIPOS>ATOM
      1 N         144.2717  138.5847  162.5336 N.pl3   1  UNL1       -0.2825
      2 H         145.0724  138.0212  162.6365 H       1  UNL1        0.1551
      3 C         139.5985  139.6343  164.8753 C.ar    1  UNL1        0.1554
      4 N         139.3027  139.8897  166.3235 N.ar    1  UNL1       -0.1646
      5 N         140.5938  139.8040  167.0823 N.ar    1  UNL1       -0.2487
      6 C         140.7617  139.9933  168.5608 C.3     1  UNL1        0.1537
      7 C         141.6875  139.4957  166.1031 C.ar    1  UNL1        0.0796
      8 C         143.1640  139.2968  166.2773 C.ar    1  UNL1        0.0201
      9 C         144.0253  138.9932  165.0875 C.ar    1  UNL1        0.0162
     10 C         143.4102  138.8884  163.7235 C.ar    1  UNL1        0.0506
     11 C         141.9338  139.0872  163.5492 C.ar    1  UNL1        0.0179
     12 C         141.0724  139.3908  164.7391 C.ar    1  UNL1        0.0423
     13 C         137.6029  138.5012  161.6374 C.3     1  UNL1        0.1110
     14 N         138.6050  138.5113  162.7535 N.am    1  UNL1       -0.2979
     15 C         138.5964  139.6243  163.7591 C.2     1  UNL1        0.2654
     16 O         137.5858  140.7271  163.6486 O.2     1  UNL1       -0.2684
     17 H         139.2684  137.7874  162.8260 H       1  UNL1        0.1498
     18 C         143.9133  139.1396  161.1869 C.ar    1  UNL1        0.2207
     19 N         144.2678  140.5554  160.8405 N.ar    1  UNL1       -0.2120
     20 C         143.9093  141.1103  159.4938 C.ar    1  UNL1        0.1034
     21 C         143.1963  140.2495  158.4935 C.ar    1  UNL1        0.0415
     22 C         142.8418  138.8337  158.8399 C.ar    1  UNL1        0.1050
     23 N         143.2002  138.2788  160.1866 N.ar    1  UNL1       -0.2120
     24 C         142.1288  137.9729  157.8397 C.ar    1  UNL1        0.1198
     25 C         142.6915  136.7595  157.1606 C.ar    1  UNL1        0.0381
     26 C         141.6384  136.2110  156.2441 C.ar    1  UNL1        0.0734
     27 N         140.4247  137.0854  156.3567 N.ar    1  UNL1       -0.2515
     28 C         139.1346  136.9029  155.6136 C.3     1  UNL1        0.1534
     29 N         140.7279  138.1743  157.3428 N.ar    1  UNL1       -0.1680
     30 C         141.7748  135.0006  155.3686 C.3     1  UNL1        0.1184
     31 N         141.8592  135.1579  153.8793 N.3     1  UNL1       -0.2652
     32 C         142.0942  136.5128  153.2803 C.3     1  UNL1        0.0900
     33 C         141.7085  133.9601  152.9889 C.3     1  UNL1        0.0900
@<TRIPOS>BOND
     1    13    14    1
     2    14    15   am
     3    15    16    2
     4    15     3    1
     5     3     4   ar
     6     4     5   ar
     7     5     6    1
     8     5     7   ar
     9     7     8   ar
    10     8     9   ar
    11     9    10   ar
    12    10     1    1
    13     1    18    1
    14    18    19   ar
    15    19    20   ar
    16    20    21   ar
    17    21    22   ar
    18    22    24    1
    19    24    25   ar
    20    25    26   ar
    21    26    30    1
    22    30    31    1
    23    31    32    1
    24    31    33    1
    25    26    27   ar
    26    27    28    1
    27    27    29   ar
    28    22    23   ar
    29    10    11   ar
    30    11    12   ar
    31    12     3   ar
    32    12     7   ar
    33    23    18   ar
    34    29    24   ar
    35    14    17    1
    36     1     2    1
