@<TRIPOS>MOLECULE
*****
 27 30 0 0 0
SMALL
GASTEIGER

@<TRIPOS>ATOM
      1 C         140.7972  142.0083  167.3183 C.3     1  UNL1        0.0070
      2 C         142.1272  141.3175  167.3809 C.3     1  UNL1        0.0163
      3 C         143.0590  141.5866  168.5252 C.3     1  UNL1        0.0578
      4 C         143.6369  142.1370  169.7953 C.3     1  UNL1        0.0173
      5 C         142.6391  143.0900  170.3836 C.3     1  UNL1        0.0173
      6 C         141.4445  143.1286  169.4772 C.3     1  UNL1        0.0578
      7 C         140.3990  142.9682  168.4000 C.3     1  UNL1        0.0163
      8 N         141.7041  142.1994  168.3286 N.3     1  UNL1       -0.2716
      9 C         139.8654  141.7392  166.1740 C.3     1  UNL1        0.0264
     10 C         139.3053  138.2862  164.2997 C.ar    1  UNL1        0.0528
     11 C         138.5041  137.5356  165.3217 C.ar    1  UNL1        0.0045
     12 C         138.1566  138.1862  166.6279 C.ar    1  UNL1       -0.0002
     13 C         138.6104  139.5873  166.9119 C.ar    1  UNL1       -0.0043
     14 C         139.4116  140.3380  165.8899 C.ar    1  UNL1       -0.0220
     15 C         139.7591  139.6875  164.5838 C.ar    1  UNL1        0.0002
     16 N         138.6791  137.6757  161.8532 N.am    1  UNL1       -0.3253
     17 C         139.6528  137.6356  162.9936 C.2     1  UNL1        0.2427
     18 O         140.9740  136.9449  162.8278 O.2     1  UNL1       -0.2704
     19 H         138.9072  137.2487  160.9960 H       1  UNL1        0.1453
     20 H         137.8120  138.1291  161.9620 H       1  UNL1        0.1453
     21 C         140.7723  141.9303  167.1843 C.3     1  UNL1        0.0991
     22 C         140.6345  142.9333  166.0774 C.ar    1  UNL1       -0.0061
     23 C         141.7531  143.1265  165.0969 C.ar    1  UNL1       -0.0029
     24 C         141.6153  144.1293  163.9901 C.ar    1  UNL1       -0.0003
     25 C         140.3590  144.9390  163.8637 C.ar    1  UNL1       -0.0000
     26 C         139.2403  144.7458  164.8443 C.ar    1  UNL1       -0.0003
     27 C         139.3782  143.7429  165.9511 C.ar    1  UNL1       -0.0029
@<TRIPOS>BOND
     1    16    17   am
     2    17    18    2
     3    17    10    1
     4    10    11   ar
     5    11    12   ar
     6    12    13   ar
     7    13    14   ar
     8    14     9    1
     9     1     9    1
    10     1     2    1
    11     3     2    1
    12     3     4    1
    13     4     5    1
    14     6     5    1
    15     6     7    1
    16     6     8    1
    17     8    21    1
    18    21    22    1
    19    22    23   ar
    20    23    24   ar
    21    24    25   ar
    22    25    26   ar
    23    26    27   ar
    24    14    15   ar
    25    15    10   ar
    26     7     1    1
    27    27    22   ar
    28     8     3    1
    29    16    19    1
    30    16    20    1
@<TRIPOS>MOLECULE
*****
 27 30 0 0 0
SMALL
GASTEIGER

@<TRIPOS>ATOM
      1 C         141.5563  142.3343  165.8688 C.3     1  UNL1        0.0070
      2 C         140.4525  143.1983  165.3350 C.3     1  UNL1        0.0163
      3 C         140.7673  144.3153  164.3847 C.3     1  UNL1        0.0578
      4 C         141.5167  145.2688  163.5019 C.3     1  UNL1        0.0173
      5 C         142.9730  144.9160  163.5697 C.3     1  UNL1        0.0173
      6 C         143.1237  143.7446  164.4944 C.3     1  UNL1        0.0578
      7 C         142.9750  142.5874  165.4524 C.3     1  UNL1        0.0163
      8 N         141.7605  143.3734  164.9981 N.3     1  UNL1       -0.2716
      9 C         141.2415  141.2171  166.8191 C.3     1  UNL1        0.0264
     10 C         139.5103  138.3338  164.7124 C.ar    1  UNL1        0.0528
     11 C         138.3616  137.9781  165.6090 C.ar    1  UNL1        0.0045
     12 C         138.1729  138.7021  166.9091 C.ar    1  UNL1       -0.0002
     13 C         139.1329  139.7818  167.3124 C.ar    1  UNL1       -0.0043
     14 C         140.2815  140.1374  166.4158 C.ar    1  UNL1       -0.0220
     15 C         140.4703  139.4135  165.1157 C.ar    1  UNL1        0.0002
     16 N         138.5894  137.5784  162.4033 N.am    1  UNL1       -0.3253
     17 C         139.6989  137.6097  163.4123 C.2     1  UNL1        0.2427
     18 O         140.9972  136.9169  163.1212 O.2     1  UNL1       -0.2704
     19 H         138.7133  137.1032  161.5501 H       1  UNL1        0.1453
     20 H         137.7374  138.0331  162.5944 H       1  UNL1        0.1453
     21 C         141.4456  142.2563  165.9484 C.3     1  UNL1        0.0991
     22 C         141.6877  142.4314  167.4184 C.ar    1  UNL1       -0.0061
     23 C         142.9890  141.9928  168.0217 C.ar    1  UNL1       -0.0029
     24 C         143.2310  142.1679  169.4916 C.ar    1  UNL1       -0.0003
     25 C         142.1717  142.7817  170.3582 C.ar    1  UNL1       -0.0000
     26 C         140.8702  143.2203  169.7549 C.ar    1  UNL1       -0.0003
     27 C         140.6283  143.0452  168.2849 C.ar    1  UNL1       -0.0029
@<TRIPOS>BOND
     1    16    17   am
     2    17    18    2
     3    17    10    1
     4    10    11   ar
     5    11    12   ar
     6    12    13   ar
     7    13    14   ar
     8    14     9    1
     9     1     9    1
    10     1     2    1
    11     3     2    1
    12     3     4    1
    13     4     5    1
    14     6     5    1
    15     6     7    1
    16     6     8    1
    17     8    21    1
    18    21    22    1
    19    22    23   ar
    20    23    24   ar
    21    24    25   ar
    22    25    26   ar
    23    26    27   ar
    24    14    15   ar
    25    15    10   ar
    26     7     1    1
    27    27    22   ar
    28     8     3    1
    29    16    19    1
    30    16    20    1
@<TRIPOS>MOLECULE
*****
 27 30 0 0 0
SMALL
GASTEIGER

@<TRIPOS>ATOM
      1 C         141.9866  142.0463  164.7876 C.3     1  UNL1        0.0070
      2 C         143.2158  142.7533  165.2767 C.3     1  UNL1        0.0163
      3 C         144.5544  142.4274  164.6835 C.3     1  UNL1        0.0578
      4 C         145.6278  141.8071  163.8390 C.3     1  UNL1        0.0173
      5 C         144.9812  140.8027  162.9317 C.3     1  UNL1        0.0173
      6 C         143.5083  140.8022  163.2155 C.3     1  UNL1        0.0578
      7 C         142.0960  141.0135  163.7052 C.3     1  UNL1        0.0163
      8 N         143.2445  141.8063  164.2982 N.3     1  UNL1       -0.2716
      9 C         140.6479  142.3722  165.3808 C.3     1  UNL1        0.0264
     10 C         140.0545  142.1398  169.2978 C.ar    1  UNL1        0.0528
     11 C         139.5208  140.7434  169.4214 C.ar    1  UNL1        0.0045
     12 C         139.3629  139.8899  168.1980 C.ar    1  UNL1       -0.0002
     13 C         139.7386  140.4328  166.8512 C.ar    1  UNL1       -0.0043
     14 C         140.2722  141.8292  166.7277 C.ar    1  UNL1       -0.0220
     15 C         140.4302  142.6827  167.9509 C.ar    1  UNL1        0.0002
     16 N         140.1711  144.4881  170.4034 N.am    1  UNL1       -0.3253
     17 C         140.2124  142.9932  170.5212 C.2     1  UNL1        0.2427
     18 O         140.4117  142.3519  171.8625 O.2     1  UNL1       -0.2704
     19 H         140.2747  145.0482  171.2063 H       1  UNL1        0.1453
     20 H         140.0403  144.9090  169.5230 H       1  UNL1        0.1453
     21 C         141.9059  142.1322  164.8914 C.3     1  UNL1        0.0991
     22 C         140.9124  142.9349  164.1049 C.ar    1  UNL1       -0.0061
     23 C         139.8334  142.2400  163.3283 C.ar    1  UNL1       -0.0029
     24 C         138.8399  143.0427  162.5419 C.ar    1  UNL1       -0.0003
     25 C         138.9253  144.5402  162.5320 C.ar    1  UNL1       -0.0000
     26 C         140.0042  145.2351  163.3086 C.ar    1  UNL1       -0.0003
     27 C         140.9977  144.4324  164.0951 C.ar    1  UNL1       -0.0029
@<TRIPOS>BOND
     1    16    17   am
     2    17    18    2
     3    17    10    1
     4    10    11   ar
     5    11    12   ar
     6    12    13   ar
     7    13    14   ar
     8    14     9    1
     9     1     9    1
    10     1     2    1
    11     3     2    1
    12     3     4    1
    13     4     5    1
    14     6     5    1
    15     6     7    1
    16     6     8    1
    17     8    21    1
    18    21    22    1
    19    22    23   ar
    20    23    24   ar
    21    24    25   ar
    22    25    26   ar
    23    26    27   ar
    24    14    15   ar
    25    15    10   ar
    26     7     1    1
    27    27    22   ar
    28     8     3    1
    29    16    19    1
    30    16    20    1
@<TRIPOS>MOLECULE
*****
 27 30 0 0 0
SMALL
GASTEIGER

@<TRIPOS>ATOM
      1 C         139.3907  141.3239  165.5747 C.3     1  UNL1        0.0070
      2 C         140.2261  142.5688  165.6208 C.3     1  UNL1        0.0163
      3 C         139.7912  143.7921  164.8697 C.3     1  UNL1        0.0578
      4 C         139.0019  144.7297  164.0049 C.3     1  UNL1        0.0173
      5 C         137.7860  143.9985  163.5180 C.3     1  UNL1        0.0173
      6 C         137.8239  142.6090  164.0819 C.3     1  UNL1        0.0578
      7 C         138.1202  141.3023  164.7775 C.3     1  UNL1        0.0163
      8 N         139.0632  142.4815  164.9173 N.3     1  UNL1       -0.2716
      9 C         139.8256  140.1004  166.3259 C.3     1  UNL1        0.0264
     10 C         141.7270  140.4860  169.7879 C.ar    1  UNL1        0.0528
     11 C         140.5902  140.3326  170.7543 C.ar    1  UNL1        0.0045
     12 C         139.1985  140.1018  170.2446 C.ar    1  UNL1       -0.0002
     13 C         138.9436  140.0244  168.7685 C.ar    1  UNL1       -0.0043
     14 C         140.0805  140.1778  167.8021 C.ar    1  UNL1       -0.0220
     15 C         141.4722  140.4086  168.3117 C.ar    1  UNL1        0.0002
     16 N         143.7435  139.7347  171.2438 N.am    1  UNL1       -0.3253
     17 C         143.1188  140.7168  170.2976 C.2     1  UNL1        0.2427
     18 O         143.8858  141.9298  169.8612 O.2     1  UNL1       -0.2704
     19 H         144.6569  139.8862  171.5783 H       1  UNL1        0.1453
     20 H         143.2401  138.9386  171.5302 H       1  UNL1        0.1453
     21 C         139.4982  141.2581  165.6685 C.3     1  UNL1        0.0991
     22 C         139.8242  139.9973  164.9240 C.ar    1  UNL1       -0.0061
     23 C         141.1482  139.8551  164.2336 C.ar    1  UNL1       -0.0029
     24 C         141.4743  138.5944  163.4893 C.ar    1  UNL1       -0.0003
     25 C         140.4763  137.4758  163.4353 C.ar    1  UNL1       -0.0000
     26 C         139.1522  137.6181  164.1257 C.ar    1  UNL1       -0.0003
     27 C         138.8262  138.8789  164.8701 C.ar    1  UNL1       -0.0029
@<TRIPOS>BOND
     1    16    17   am
     2    17    18    2
     3    17    10    1
     4    10    11   ar
     5    11    12   ar
     6    12    13   ar
     7    13    14   ar
     8    14     9    1
     9     1     9    1
    10     1     2    1
    11     3     2    1
    12     3     4    1
    13     4     5    1
    14     6     5    1
    15     6     7    1
    16     6     8    1
    17     8    21    1
    18    21    22    1
    19    22    23   ar
    20    23    24   ar
    21    24    25   ar
    22    25    26   ar
    23    26    27   ar
    24    14    15   ar
    25    15    10   ar
    26     7     1    1
    27    27    22   ar
    28     8     3    1
    29    16    19    1
    30    16    20    1
@<TRIPOS>MOLECULE
*****
 27 30 0 0 0
SMALL
GASTEIGER

@<TRIPOS>ATOM
      1 C         142.4116  141.6183  165.8970 C.3     1  UNL1        0.0070
      2 C         143.3524  142.6706  165.3895 C.3     1  UNL1        0.0163
      3 C         144.5851  142.2726  164.6331 C.3     1  UNL1        0.0578
      4 C         145.6417  141.4478  163.9598 C.3     1  UNL1        0.0173
      5 C         145.2669  140.0030  164.1092 C.3     1  UNL1        0.0173
      6 C         143.9788  139.9350  164.8748 C.3     1  UNL1        0.0578
      7 C         142.7034  140.1682  165.6482 C.3     1  UNL1        0.0163
      8 N         143.5574  141.3377  165.1985 N.3     1  UNL1       -0.2716
      9 C         141.1788  142.0162  166.6535 C.3     1  UNL1        0.0264
     10 C         138.2977  142.8997  164.0712 C.ar    1  UNL1        0.0528
     11 C         137.8810  144.2538  164.5638 C.ar    1  UNL1        0.0045
     12 C         138.5635  144.8621  165.7529 C.ar    1  UNL1       -0.0002
     13 C         139.6628  144.1162  166.4495 C.ar    1  UNL1       -0.0043
     14 C         140.0795  142.7621  165.9569 C.ar    1  UNL1       -0.0220
     15 C         139.3970  142.1538  164.7678 C.ar    1  UNL1        0.0002
     16 N         136.9267  140.9648  163.0096 N.am    1  UNL1       -0.3253
     17 C         137.6152  142.2914  162.8820 C.2     1  UNL1        0.2427
     18 O         137.6210  143.0098  161.5652 O.2     1  UNL1       -0.2704
     19 H         136.4787  140.5656  162.2291 H       1  UNL1        0.1453
     20 H         136.9229  140.4934  163.8739 H       1  UNL1        0.1453
     21 C         142.3247  141.7356  165.9549 C.3     1  UNL1        0.0991
     22 C         142.2090  141.4240  167.4177 C.ar    1  UNL1       -0.0061
     23 C         142.9820  142.2295  168.4195 C.ar    1  UNL1       -0.0029
     24 C         142.8663  141.9179  169.8821 C.ar    1  UNL1       -0.0003
     25 C         141.9776  140.8009  170.3430 C.ar    1  UNL1       -0.0000
     26 C         141.2046  139.9953  169.3411 C.ar    1  UNL1       -0.0003
     27 C         141.3204  140.3070  167.8785 C.ar    1  UNL1       -0.0029
@<TRIPOS>BOND
     1    16    17   am
     2    17    18    2
     3    17    10    1
     4    10    11   ar
     5    11    12   ar
     6    12    13   ar
     7    13    14   ar
     8    14     9    1
     9     1     9    1
    10     1     2    1
    11     3     2    1
    12     3     4    1
    13     4     5    1
    14     6     5    1
    15     6     7    1
    16     6     8    1
    17     8    21    1
    18    21    22    1
    19    22    23   ar
    20    23    24   ar
    21    24    25   ar
    22    25    26   ar
    23    26    27   ar
    24    14    15   ar
    25    15    10   ar
    26     7     1    1
    27    27    22   ar
    28     8     3    1
    29    16    19    1
    30    16    20    1
@<TRIPOS>MOLECULE
*****
 27 30 0 0 0
SMALL
GASTEIGER

@<TRIPOS>ATOM
      1 C         139.9851  140.7122  165.0757 C.3     1  UNL1        0.0070
      2 C         141.1641  140.0792  164.3980 C.3     1  UNL1        0.0163
      3 C         140.9813  138.8324  163.5844 C.3     1  UNL1        0.0578
      4 C         140.3541  137.6500  162.9072 C.3     1  UNL1        0.0173
      5 C         138.8871  137.6611  163.2199 C.3     1  UNL1        0.0173
      6 C         138.6076  138.8503  164.0904 C.3     1  UNL1        0.0578
      7 C         138.6232  140.0983  164.9396 C.3     1  UNL1        0.0163
      8 N         139.9019  139.5742  164.3156 N.3     1  UNL1       -0.2716
      9 C         140.1679  141.9590  165.8894 C.3     1  UNL1        0.0264
     10 C         141.1816  141.4871  169.6972 C.ar    1  UNL1        0.0528
     11 C         142.6364  141.8496  169.6502 C.ar    1  UNL1        0.0045
     12 C         143.2683  142.2485  168.3497 C.ar    1  UNL1       -0.0002
     13 C         142.4455  142.2850  167.0961 C.ar    1  UNL1       -0.0043
     14 C         140.9907  141.9226  167.1430 C.ar    1  UNL1       -0.0220
     15 C         140.3588  141.5236  168.4435 C.ar    1  UNL1        0.0002
     16 N         139.9711  139.7138  171.1601 N.am    1  UNL1       -0.3253
     17 C         140.5497  141.0882  170.9977 C.2     1  UNL1        0.2427
     18 O         140.4963  142.0637  172.1361 O.2     1  UNL1       -0.2704
     19 H         139.5564  139.4520  172.0137 H       1  UNL1        0.1453
     20 H         140.0062  139.0736  170.4130 H       1  UNL1        0.1453
     21 C         140.0848  140.8210  165.1293 C.3     1  UNL1        0.0991
     22 C         139.6742  142.1500  164.5678 C.ar    1  UNL1       -0.0061
     23 C         140.6370  142.9411  163.7327 C.ar    1  UNL1       -0.0029
     24 C         140.2265  144.2700  163.1712 C.ar    1  UNL1       -0.0003
     25 C         138.8532  144.8079  163.4447 C.ar    1  UNL1       -0.0000
     26 C         137.8904  144.0168  164.2799 C.ar    1  UNL1       -0.0003
     27 C         138.3010  142.6878  164.8413 C.ar    1  UNL1       -0.0029
@<TRIPOS>BOND
     1    16    17   am
     2    17    18    2
     3    17    10    1
     4    10    11   ar
     5    11    12   ar
     6    12    13   ar
     7    13    14   ar
     8    14     9    1
     9     1     9    1
    10     1     2    1
    11     3     2    1
    12     3     4    1
    13     4     5    1
    14     6     5    1
    15     6     7    1
    16     6     8    1
    17     8    21    1
    18    21    22    1
    19    22    23   ar
    20    23    24   ar
    21    24    25   ar
    22    25    26   ar
    23    26    27   ar
    24    14    15   ar
    25    15    10   ar
    26     7     1    1
    27    27    22   ar
    28     8     3    1
    29    16    19    1
    30    16    20    1
@<TRIPOS>MOLECULE
*****
 27 30 0 0 0
SMALL
GASTEIGER

@<TRIPOS>ATOM
      1 C         140.8811  140.9183  167.5184 C.3     1  UNL1        0.0070
      2 C         140.2991  141.6034  168.7192 C.3     1  UNL1        0.0163
      3 C         140.9089  141.3905  170.0730 C.3     1  UNL1        0.0578
      4 C         141.8052  140.9056  171.1737 C.3     1  UNL1        0.0173
      5 C         142.8293  139.9916  170.5687 C.3     1  UNL1        0.0173
      6 C         142.5658  139.9117  169.0942 C.3     1  UNL1        0.0578
      7 C         142.0729  140.0203  167.6714 C.3     1  UNL1        0.0163
      8 N         141.3789  140.7762  168.7878 N.3     1  UNL1       -0.2716
      9 C         140.2713  141.1312  166.1645 C.3     1  UNL1        0.0264
     10 C         142.1757  143.8820  164.0302 C.ar    1  UNL1        0.0528
     11 C         141.1061  144.9245  163.8922 C.ar    1  UNL1        0.0045
     12 C         139.7581  144.7025  164.5117 C.ar    1  UNL1       -0.0002
     13 C         139.4799  143.4381  165.2691 C.ar    1  UNL1       -0.0043
     14 C         140.5496  142.3956  165.4071 C.ar    1  UNL1       -0.0220
     15 C         141.8975  142.6176  164.7876 C.ar    1  UNL1        0.0002
     16 N         143.8337  145.4076  162.7364 N.am    1  UNL1       -0.3253
     17 C         143.5237  144.1041  163.4107 C.2     1  UNL1        0.2427
     18 O         144.5616  143.0225  163.4654 O.2     1  UNL1       -0.2704
     19 H         144.7184  145.5533  162.3298 H       1  UNL1        0.1453
     20 H         143.1525  146.1175  162.7005 H       1  UNL1        0.1453
     21 C         140.7692  140.9891  167.4340 C.3     1  UNL1        0.0991
     22 C         140.0812  139.8545  166.7345 C.ar    1  UNL1       -0.0061
     23 C         140.7860  139.1112  165.6387 C.ar    1  UNL1       -0.0029
     24 C         140.0981  137.9766  164.9392 C.ar    1  UNL1       -0.0003
     25 C         138.7053  137.5853  165.3354 C.ar    1  UNL1       -0.0000
     26 C         138.0004  138.3287  166.4312 C.ar    1  UNL1       -0.0003
     27 C         138.6884  139.4633  167.1307 C.ar    1  UNL1       -0.0029
@<TRIPOS>BOND
     1    16    17   am
     2    17    18    2
     3    17    10    1
     4    10    11   ar
     5    11    12   ar
     6    12    13   ar
     7    13    14   ar
     8    14     9    1
     9     1     9    1
    10     1     2    1
    11     3     2    1
    12     3     4    1
    13     4     5    1
    14     6     5    1
    15     6     7    1
    16     6     8    1
    17     8    21    1
    18    21    22    1
    19    22    23   ar
    20    23    24   ar
    21    24    25   ar
    22    25    26   ar
    23    26    27   ar
    24    14    15   ar
    25    15    10   ar
    26     7     1    1
    27    27    22   ar
    28     8     3    1
    29    16    19    1
    30    16    20    1
@<TRIPOS>MOLECULE
*****
 27 30 0 0 0
SMALL
GASTEIGER

@<TRIPOS>ATOM
      1 C         140.2897  141.9383  165.9285 C.3     1  UNL1        0.0070
      2 C         140.3502  143.3773  165.5094 C.3     1  UNL1        0.0163
      3 C         139.2654  143.9540  164.6489 C.3     1  UNL1        0.0578
      4 C         138.0185  144.0920  163.8265 C.3     1  UNL1        0.0173
      5 C         137.3224  142.7634  163.8136 C.3     1  UNL1        0.0173
      6 C         138.1390  141.8043  164.6280 C.3     1  UNL1        0.0578
      7 C         139.1444  141.0761  165.4870 C.3     1  UNL1        0.0163
      8 N         139.3398  142.5402  165.1442 N.3     1  UNL1       -0.2716
      9 C         141.3746  141.3615  166.7890 C.3     1  UNL1        0.0264
     10 C         144.3761  140.3365  164.4037 C.ar    1  UNL1        0.0528
     11 C         144.6933  138.9646  164.9207 C.ar    1  UNL1        0.0045
     12 C         143.9042  138.3917  166.0605 C.ar    1  UNL1       -0.0002
     13 C         142.7980  139.1907  166.6832 C.ar    1  UNL1       -0.0043
     14 C         142.4808  140.5626  166.1662 C.ar    1  UNL1       -0.0220
     15 C         143.2699  141.1355  165.0265 C.ar    1  UNL1        0.0002
     16 N         146.2783  141.8779  163.5343 N.am    1  UNL1       -0.3253
     17 C         145.1652  140.9094  163.2639 C.2     1  UNL1        0.2427
     18 O         144.8412  140.5138  161.8537 O.2     1  UNL1       -0.2704
     19 H         146.7962  142.2539  162.7862 H       1  UNL1        0.1453
     20 H         146.4909  142.1376  164.4598 H       1  UNL1        0.1453
     21 C         140.4247  141.9634  166.0048 C.3     1  UNL1        0.0991
     22 C         140.2110  141.8150  167.4821 C.ar    1  UNL1       -0.0061
     23 C         139.6132  140.5533  168.0304 C.ar    1  UNL1       -0.0029
     24 C         139.3996  140.4049  169.5076 C.ar    1  UNL1       -0.0003
     25 C         139.7837  141.5183  170.4365 C.ar    1  UNL1       -0.0000
     26 C         140.3815  142.7801  169.8882 C.ar    1  UNL1       -0.0003
     27 C         140.5951  142.9284  168.4109 C.ar    1  UNL1       -0.0029
@<TRIPOS>BOND
     1    16    17   am
     2    17    18    2
     3    17    10    1
     4    10    11   ar
     5    11    12   ar
     6    12    13   ar
     7    13    14   ar
     8    14     9    1
     9     1     9    1
    10     1     2    1
    11     3     2    1
    12     3     4    1
    13     4     5    1
    14     6     5    1
    15     6     7    1
    16     6     8    1
    17     8    21    1
    18    21    22    1
    19    22    23   ar
    20    23    24   ar
    21    24    25   ar
    22    25    26   ar
    23    26    27   ar
    24    14    15   ar
    25    15    10   ar
    26     7     1    1
    27    27    22   ar
    28     8     3    1
    29    16    19    1
    30    16    20    1
@<TRIPOS>MOLECULE
*****
 27 30 0 0 0
SMALL
GASTEIGER

@<TRIPOS>ATOM
      1 C         140.4689  141.6680  166.6302 C.3     1  UNL1        0.0070
      2 C         139.8649  140.3597  167.0468 C.3     1  UNL1        0.0163
      3 C         139.4681  140.1383  168.4763 C.3     1  UNL1        0.0578
      4 C         139.2354  140.3550  169.9423 C.3     1  UNL1        0.0173
      5 C         139.7038  141.7378  170.2864 C.3     1  UNL1        0.0173
      6 C         140.2259  142.3758  169.0332 C.3     1  UNL1        0.0578
      7 C         140.6761  142.7548  167.6430 C.3     1  UNL1        0.0163
      8 N         140.0802  141.3872  167.9145 N.3     1  UNL1       -0.2716
      9 C         140.8657  141.8894  165.2006 C.3     1  UNL1        0.0264
     10 C         143.1829  139.3338  163.2387 C.ar    1  UNL1        0.0528
     11 C         144.5420  139.8869  163.5500 C.ar    1  UNL1        0.0045
     12 C         144.6756  141.1075  164.4115 C.ar    1  UNL1       -0.0002
     13 C         143.4503  141.7750  164.9617 C.ar    1  UNL1       -0.0043
     14 C         142.0912  141.2219  164.6504 C.ar    1  UNL1       -0.0220
     15 C         141.9575  140.0013  163.7889 C.ar    1  UNL1        0.0002
     16 N         141.8143  137.2661  162.4630 N.am    1  UNL1       -0.3253
     17 C         143.0493  138.1132  162.3771 C.2     1  UNL1        0.2427
     18 O         144.1506  137.7396  161.4297 O.2     1  UNL1       -0.2704
     19 H         141.7266  136.4650  161.8975 H       1  UNL1        0.1453
     20 H         141.0915  137.5113  163.0848 H       1  UNL1        0.1453
     21 C         140.4770  141.6086  166.4850 C.3     1  UNL1        0.0991
     22 C         139.6048  142.4307  165.5832 C.ar    1  UNL1       -0.0061
     23 C         139.8437  143.9054  165.4490 C.ar    1  UNL1       -0.0029
     24 C         138.9715  144.7276  164.5472 C.ar    1  UNL1       -0.0003
     25 C         137.8602  144.0750  163.7797 C.ar    1  UNL1       -0.0000
     26 C         137.6212  142.6002  163.9139 C.ar    1  UNL1       -0.0003
     27 C         138.4935  141.7781  164.8157 C.ar    1  UNL1       -0.0029
@<TRIPOS>BOND
     1    16    17   am
     2    17    18    2
     3    17    10    1
     4    10    11   ar
     5    11    12   ar
     6    12    13   ar
     7    13    14   ar
     8    14     9    1
     9     1     9    1
    10     1     2    1
    11     3     2    1
    12     3     4    1
    13     4     5    1
    14     6     5    1
    15     6     7    1
    16     6     8    1
    17     8    21    1
    18    21    22    1
    19    22    23   ar
    20    23    24   ar
    21    24    25   ar
    22    25    26   ar
    23    26    27   ar
    24    14    15   ar
    25    15    10   ar
    26     7     1    1
    27    27    22   ar
    28     8     3    1
    29    16    19    1
    30    16    20    1
