@<TRIPOS>MOLECULE
*****
 34 38 0 0 0
SMALL
GASTEIGER

@<TRIPOS>ATOM
      1 C         142.5627  143.2471  163.3834 C.ar    1  UNL1        0.1074
      2 C         143.6965  143.9391  164.0803 C.ar    1  UNL1        0.0588
      3 S         143.9652  143.2107  165.3638 S.2     1  UNL1       -0.0508
      4 C         142.9974  142.0687  165.4601 C.ar    1  UNL1        0.1646
      5 N         142.1307  142.0912  164.2361 N.ar    1  UNL1       -0.2224
      6 C         142.2331  144.1065  159.5229 C.ar    1  UNL1        0.2416
      7 N         142.8301  143.7117  160.8412 N.ar    1  UNL1       -0.2089
      8 C         141.9657  143.6419  162.0652 C.ar    1  UNL1        0.1026
      9 C         140.5044  143.9668  161.9708 C.ar    1  UNL1        0.0224
     10 C         139.9074  144.3615  160.6524 C.ar    1  UNL1        0.0239
     11 C         140.7718  144.4314  159.4286 C.ar    1  UNL1        0.1189
     12 N         140.1749  144.8261  158.1103 N.ar    1  UNL1       -0.2826
     13 C         139.4903  143.9075  157.1419 C.ar    1  UNL1        0.1826
     14 N         139.0500  144.7223  155.9621 N.ar    1  UNL1       -0.2280
     15 C         139.4624  146.1447  156.2013 C.ar    1  UNL1        0.0786
     16 C         139.2218  147.2999  155.2753 C.3     1  UNL1        0.0538
     17 C         140.1576  146.2087  157.5290 C.ar    1  UNL1        0.0963
     18 C         143.2906  142.9573  157.4466 C.3     1  UNL1        0.2543
     19 O         143.0975  144.1763  158.2990 O.3     1  UNL1       -0.4551
     20 N         142.9116  141.0780  166.5832 N.pl3   1  UNL1       -0.2786
     21 H         143.7284  140.6440  166.9203 H       1  UNL1        0.1555
     22 C         141.5811  140.7488  167.1927 C.ar    1  UNL1        0.1274
     23 C         140.5470  139.8318  166.6098 C.ar    1  UNL1        0.0244
     24 C         139.3780  139.7949  167.5490 C.ar    1  UNL1        0.0773
     25 N         139.6896  140.6891  168.7123 N.ar    1  UNL1       -0.1730
     26 N         141.0512  141.2786  168.4921 N.ar    1  UNL1       -0.2420
     27 C         138.1808  138.9519  167.2235 C.3     1  UNL1        0.0474
     28 C         138.1526  138.1457  165.9589 C.3     1  UNL1        0.0067
     29 C         139.3217  138.1826  165.0198 C.3     1  UNL1        0.0052
     30 C         140.5189  139.0256  165.3452 C.3     1  UNL1        0.0305
     31 C         141.7587  142.2308  169.4102 C.3     1  UNL1        0.0879
     32 C         142.8157  141.1980  169.6669 C.3     1  UNL1        0.0245
     33 C         140.7017  143.2637  169.1535 C.3     1  UNL1        0.0245
     34 C         142.4662  143.1830  170.3282 C.3     1  UNL1        0.0245
@<TRIPOS>BOND
     1    18    19    1
     2    19     6    1
     3     6     7   ar
     4     7     8   ar
     5     8     1    1
     6     1     2   ar
     7     2     3   ar
     8     3     4   ar
     9     4    20    1
    10    20    22    1
    11    22    23   ar
    12    23    24   ar
    13    24    25   ar
    14    25    26   ar
    15    26    31    1
    16    31    32    1
    17    31    33    1
    18    31    34    1
    19    24    27    1
    20    27    28    1
    21    28    29    1
    22    29    30    1
    23     4     5   ar
    24     8     9   ar
    25     9    10   ar
    26    10    11   ar
    27    11    12    1
    28    12    13   ar
    29    13    14   ar
    30    14    15   ar
    31    15    16    1
    32    15    17   ar
    33    11     6   ar
    34    17    12   ar
    35     5     1   ar
    36    26    22   ar
    37    30    23    1
    38    20    21    1
@<TRIPOS>MOLECULE
*****
 34 38 0 0 0
SMALL
GASTEIGER

@<TRIPOS>ATOM
      1 C         143.4887  141.5649  162.6186 C.ar    1  UNL1        0.1074
      2 C         144.9235  141.1354  162.7020 C.ar    1  UNL1        0.0588
      3 S         145.1124  140.3988  163.9949 S.2     1  UNL1       -0.0508
      4 C         143.7944  140.3731  164.7106 C.ar    1  UNL1        0.1646
      5 N         142.7909  141.0938  163.8600 N.ar    1  UNL1       -0.2224
      6 C         140.9917  143.9015  160.6048 C.ar    1  UNL1        0.2416
      7 N         141.6186  143.1354  161.7318 N.ar    1  UNL1       -0.2089
      8 C         142.8619  142.3311  161.4917 C.ar    1  UNL1        0.1026
      9 C         143.4782  142.2930  160.1247 C.ar    1  UNL1        0.0224
     10 C         142.8512  143.0593  158.9977 C.ar    1  UNL1        0.0239
     11 C         141.6080  143.8635  159.2379 C.ar    1  UNL1        0.1189
     12 N         140.9811  144.6297  158.1109 N.ar    1  UNL1       -0.2826
     13 C         141.4594  145.9418  157.5633 C.ar    1  UNL1        0.1826
     14 N         140.5398  146.3413  156.4478 N.ar    1  UNL1       -0.2280
     15 C         139.4931  145.2761  156.3058 C.ar    1  UNL1        0.0786
     16 C         138.3708  145.2700  155.3106 C.3     1  UNL1        0.0538
     17 C         139.7659  144.2183  157.3337 C.ar    1  UNL1        0.0963
     18 C         139.8389  146.0437  161.5170 C.3     1  UNL1        0.2543
     19 O         139.7485  144.7057  160.8449 O.3     1  UNL1       -0.4551
     20 N         143.5269  139.7381  166.0431 N.pl3   1  UNL1       -0.2786
     21 H         144.2332  139.2196  166.4920 H       1  UNL1        0.1555
     22 C         142.1831  139.8931  166.6915 C.ar    1  UNL1        0.1274
     23 C         140.9046  139.2561  166.2337 C.ar    1  UNL1        0.0244
     24 C         139.8133  139.6816  167.1707 C.ar    1  UNL1        0.0773
     25 N         140.4175  140.5815  168.2076 N.ar    1  UNL1       -0.1730
     26 N         141.8821  140.7122  167.9114 N.ar    1  UNL1       -0.2420
     27 C         138.4105  139.1946  166.9587 C.3     1  UNL1        0.0474
     28 C         138.0990  138.2821  165.8097 C.3     1  UNL1        0.0067
     29 C         139.1903  137.8566  164.8727 C.3     1  UNL1        0.0052
     30 C         140.5931  138.3436  165.0847 C.3     1  UNL1        0.0305
     31 C         142.8719  141.5202  168.6972 C.3     1  UNL1        0.0879
     32 C         142.8729  140.4738  169.7719 C.3     1  UNL1        0.0245
     33 C         142.8709  142.5666  167.6225 C.3     1  UNL1        0.0245
     34 C         143.8616  142.3283  169.4830 C.3     1  UNL1        0.0245
@<TRIPOS>BOND
     1    18    19    1
     2    19     6    1
     3     6     7   ar
     4     7     8   ar
     5     8     1    1
     6     1     2   ar
     7     2     3   ar
     8     3     4   ar
     9     4    20    1
    10    20    22    1
    11    22    23   ar
    12    23    24   ar
    13    24    25   ar
    14    25    26   ar
    15    26    31    1
    16    31    32    1
    17    31    33    1
    18    31    34    1
    19    24    27    1
    20    27    28    1
    21    28    29    1
    22    29    30    1
    23     4     5   ar
    24     8     9   ar
    25     9    10   ar
    26    10    11   ar
    27    11    12    1
    28    12    13   ar
    29    13    14   ar
    30    14    15   ar
    31    15    16    1
    32    15    17   ar
    33    11     6   ar
    34    17    12   ar
    35     5     1   ar
    36    26    22   ar
    37    30    23    1
    38    20    21    1
@<TRIPOS>MOLECULE
*****
 34 38 0 0 0
SMALL
GASTEIGER

@<TRIPOS>ATOM
      1 C         138.1065  140.9184  159.9315 C.ar    1  UNL1        0.1074
      2 C         138.6825  142.0970  159.2042 C.ar    1  UNL1        0.0588
      3 S         138.3239  141.9668  157.7535 S.2     1  UNL1       -0.0508
      4 C         137.5262  140.7078  157.5844 C.ar    1  UNL1        0.1646
      5 N         137.3919  140.0598  158.9305 N.ar    1  UNL1       -0.2224
      6 C         138.8931  139.0633  163.3507 C.ar    1  UNL1        0.2416
      7 N         138.7752  139.3355  161.8802 N.ar    1  UNL1       -0.2089
      8 C         138.2244  140.6462  161.4019 C.ar    1  UNL1        0.1026
      9 C         137.7916  141.6847  162.3940 C.ar    1  UNL1        0.0224
     10 C         137.9095  141.4124  163.8644 C.ar    1  UNL1        0.0239
     11 C         138.4603  140.1017  164.3427 C.ar    1  UNL1        0.1189
     12 N         138.5782  139.8295  165.8130 N.ar    1  UNL1       -0.2826
     13 C         137.7556  138.8505  166.5973 C.ar    1  UNL1        0.1826
     14 N         138.2084  138.9044  168.0262 N.ar    1  UNL1       -0.2280
     15 C         139.3109  139.9168  168.1253 C.ar    1  UNL1        0.0786
     16 C         140.0542  140.2916  169.3730 C.3     1  UNL1        0.0538
     17 C         139.5394  140.4885  166.7574 C.ar    1  UNL1        0.0963
     18 C         140.9008  137.6285  164.1633 C.3     1  UNL1        0.2543
     19 O         139.4439  137.7526  163.8289 O.3     1  UNL1       -0.4551
     20 N         136.9619  140.1879  156.2953 N.pl3   1  UNL1       -0.2786
     21 H         137.4727  139.5374  155.7612 H       1  UNL1        0.1555
     22 C         135.6195  140.6592  155.8202 C.ar    1  UNL1        0.1274
     23 C         134.2929  140.2796  156.4085 C.ar    1  UNL1        0.0244
     24 C         133.2215  140.9785  155.6252 C.ar    1  UNL1        0.0773
     25 N         133.8859  141.7900  154.5528 N.ar    1  UNL1       -0.1730
     26 N         135.3680  141.5926  154.6733 N.ar    1  UNL1       -0.2420
     27 C         131.7793  140.7857  155.9897 C.3     1  UNL1        0.0474
     28 C         131.4085  139.8941  157.1374 C.3     1  UNL1        0.0067
     29 C         132.4800  139.1951  157.9207 C.3     1  UNL1        0.0052
     30 C         133.9222  139.3879  157.5563 C.3     1  UNL1        0.0305
     31 C         136.4147  142.2188  153.8002 C.3     1  UNL1        0.0879
     32 C         136.5602  143.3439  154.7815 C.3     1  UNL1        0.0245
     33 C         136.2692  141.0936  152.8189 C.3     1  UNL1        0.0245
     34 C         137.4614  142.8449  152.9271 C.3     1  UNL1        0.0245
@<TRIPOS>BOND
     1    18    19    1
     2    19     6    1
     3     6     7   ar
     4     7     8   ar
     5     8     1    1
     6     1     2   ar
     7     2     3   ar
     8     3     4   ar
     9     4    20    1
    10    20    22    1
    11    22    23   ar
    12    23    24   ar
    13    24    25   ar
    14    25    26   ar
    15    26    31    1
    16    31    32    1
    17    31    33    1
    18    31    34    1
    19    24    27    1
    20    27    28    1
    21    28    29    1
    22    29    30    1
    23     4     5   ar
    24     8     9   ar
    25     9    10   ar
    26    10    11   ar
    27    11    12    1
    28    12    13   ar
    29    13    14   ar
    30    14    15   ar
    31    15    16    1
    32    15    17   ar
    33    11     6   ar
    34    17    12   ar
    35     5     1   ar
    36    26    22   ar
    37    30    23    1
    38    20    21    1
@<TRIPOS>MOLECULE
*****
 34 38 0 0 0
SMALL
GASTEIGER

@<TRIPOS>ATOM
      1 C         142.5102  138.3315  159.6061 C.ar    1  UNL1        0.1074
      2 C         141.7239  139.2348  158.7031 C.ar    1  UNL1        0.0588
      3 S         141.9163  138.7619  157.2926 S.2     1  UNL1       -0.0508
      4 C         142.8216  137.5663  157.3240 C.ar    1  UNL1        0.1646
      5 N         143.1886  137.3002  158.7539 N.ar    1  UNL1       -0.2224
      6 C         143.8980  139.1807  163.2260 C.ar    1  UNL1        0.2416
      7 N         143.8062  139.0719  161.7327 N.ar    1  UNL1       -0.2089
      8 C         142.6021  138.4402  161.0993 C.ar    1  UNL1        0.1026
      9 C         141.4898  137.9174  161.9592 C.ar    1  UNL1        0.0224
     10 C         141.5816  138.0262  163.4525 C.ar    1  UNL1        0.0239
     11 C         142.7857  138.6578  164.0858 C.ar    1  UNL1        0.1189
     12 N         142.8776  138.7666  165.5791 N.ar    1  UNL1       -0.2826
     13 C         143.7114  137.9010  166.4766 C.ar    1  UNL1        0.1826
     14 N         143.5009  138.3595  167.8891 N.ar    1  UNL1       -0.2280
     15 C         142.5368  139.5085  167.8647 C.ar    1  UNL1        0.0786
     16 C         142.0446  140.2718  169.0584 C.3     1  UNL1        0.0538
     17 C         142.1517  139.7601  166.4369 C.ar    1  UNL1        0.0963
     18 C         145.3481  141.2835  163.7006 C.3     1  UNL1        0.2543
     19 O         145.1021  139.8123  163.8593 O.3     1  UNL1       -0.4551
     20 N         143.2794  136.7754  156.1344 N.pl3   1  UNL1       -0.2786
     21 H         143.9993  137.1229  155.5598 H       1  UNL1        0.1555
     22 C         142.6403  135.4552  155.8204 C.ar    1  UNL1        0.1274
     23 C         143.0670  134.1200  156.3543 C.ar    1  UNL1        0.0244
     24 C         142.1527  133.0780  155.7812 C.ar    1  UNL1        0.0773
     25 N         141.1610  133.7693  154.8932 N.ar    1  UNL1       -0.1730
     26 N         141.4623  135.2385  154.9174 N.ar    1  UNL1       -0.2420
     27 C         142.3413  131.6343  156.1421 C.3     1  UNL1        0.0474
     28 C         143.4442  131.2327  157.0760 C.3     1  UNL1        0.0067
     29 C         144.3585  132.2747  157.6491 C.3     1  UNL1        0.0052
     30 C         144.1698  133.7183  157.2882 C.3     1  UNL1        0.0305
     31 C         140.7167  136.3039  154.1698 C.3     1  UNL1        0.0879
     32 C         141.6692  136.1635  153.0196 C.3     1  UNL1        0.0245
     33 C         139.7641  136.4443  155.3200 C.3     1  UNL1        0.0245
     34 C         139.9710  137.3693  153.4222 C.3     1  UNL1        0.0245
@<TRIPOS>BOND
     1    18    19    1
     2    19     6    1
     3     6     7   ar
     4     7     8   ar
     5     8     1    1
     6     1     2   ar
     7     2     3   ar
     8     3     4   ar
     9     4    20    1
    10    20    22    1
    11    22    23   ar
    12    23    24   ar
    13    24    25   ar
    14    25    26   ar
    15    26    31    1
    16    31    32    1
    17    31    33    1
    18    31    34    1
    19    24    27    1
    20    27    28    1
    21    28    29    1
    22    29    30    1
    23     4     5   ar
    24     8     9   ar
    25     9    10   ar
    26    10    11   ar
    27    11    12    1
    28    12    13   ar
    29    13    14   ar
    30    14    15   ar
    31    15    16    1
    32    15    17   ar
    33    11     6   ar
    34    17    12   ar
    35     5     1   ar
    36    26    22   ar
    37    30    23    1
    38    20    21    1
@<TRIPOS>MOLECULE
*****
 34 38 0 0 0
SMALL
GASTEIGER

@<TRIPOS>ATOM
      1 C         142.6102  138.1905  159.4248 C.ar    1  UNL1        0.1074
      2 C         141.9313  139.1321  158.4748 C.ar    1  UNL1        0.0588
      3 S         142.1342  138.6120  157.0826 S.2     1  UNL1       -0.0508
      4 C         142.9384  137.3490  157.1721 C.ar    1  UNL1        0.1646
      5 N         143.2326  137.0885  158.6197 N.ar    1  UNL1       -0.2224
      6 C         141.6941  137.7552  163.2617 C.ar    1  UNL1        0.2416
      7 N         141.6460  137.6187  161.7686 N.ar    1  UNL1       -0.2089
      8 C         142.6582  138.3270  160.9178 C.ar    1  UNL1        0.1026
      9 C         143.7184  139.1717  161.5600 C.ar    1  UNL1        0.0224
     10 C         143.7664  139.3082  163.0531 C.ar    1  UNL1        0.0239
     11 C         142.7542  138.5999  163.9039 C.ar    1  UNL1        0.1189
     12 N         142.8022  138.7363  165.3969 N.ar    1  UNL1       -0.2826
     13 C         143.7755  138.0562  166.3136 C.ar    1  UNL1        0.1826
     14 N         143.4602  138.4764  167.7185 N.ar    1  UNL1       -0.2280
     15 C         142.2920  139.4162  167.6702 C.ar    1  UNL1        0.0786
     16 C         141.6443  140.0790  168.8497 C.3     1  UNL1        0.0538
     17 C         141.8854  139.5768  166.2353 C.ar    1  UNL1        0.0963
     18 C         139.3061  137.6216  164.2764 C.3     1  UNL1        0.2543
     19 O         140.6819  137.0469  164.1124 O.3     1  UNL1       -0.4551
     20 N         143.3724  136.4962  156.0169 N.pl3   1  UNL1       -0.2786
     21 H         144.0757  136.8153  155.4063 H       1  UNL1        0.1555
     22 C         142.7347  135.1573  155.7919 C.ar    1  UNL1        0.1274
     23 C         143.1860  133.8551  156.3842 C.ar    1  UNL1        0.0244
     24 C         142.2639  132.7785  155.8935 C.ar    1  UNL1        0.0773
     25 N         141.2428  133.4153  154.9981 N.ar    1  UNL1       -0.1730
     26 N         141.5337  134.8854  154.9353 N.ar    1  UNL1       -0.2420
     27 C         142.4733  131.3574  156.3255 C.3     1  UNL1        0.0474
     28 C         143.6047  131.0130  157.2482 C.3     1  UNL1        0.0067
     29 C         144.5267  132.0896  157.7388 C.3     1  UNL1        0.0052
     30 C         144.3173  133.5107  157.3068 C.3     1  UNL1        0.0305
     31 C         140.7596  135.9048  154.1531 C.3     1  UNL1        0.0879
     32 C         141.6017  135.6176  152.9455 C.3     1  UNL1        0.0245
     33 C         139.9176  136.1920  155.3608 C.3     1  UNL1        0.0245
     34 C         139.9855  136.9241  153.3710 C.3     1  UNL1        0.0245
@<TRIPOS>BOND
     1    18    19    1
     2    19     6    1
     3     6     7   ar
     4     7     8   ar
     5     8     1    1
     6     1     2   ar
     7     2     3   ar
     8     3     4   ar
     9     4    20    1
    10    20    22    1
    11    22    23   ar
    12    23    24   ar
    13    24    25   ar
    14    25    26   ar
    15    26    31    1
    16    31    32    1
    17    31    33    1
    18    31    34    1
    19    24    27    1
    20    27    28    1
    21    28    29    1
    22    29    30    1
    23     4     5   ar
    24     8     9   ar
    25     9    10   ar
    26    10    11   ar
    27    11    12    1
    28    12    13   ar
    29    13    14   ar
    30    14    15   ar
    31    15    16    1
    32    15    17   ar
    33    11     6   ar
    34    17    12   ar
    35     5     1   ar
    36    26    22   ar
    37    30    23    1
    38    20    21    1
@<TRIPOS>MOLECULE
*****
 34 38 0 0 0
SMALL
GASTEIGER

@<TRIPOS>ATOM
      1 C         142.7842  141.8587  162.7661 C.ar    1  UNL1        0.1074
      2 C         144.0780  142.0458  163.5016 C.ar    1  UNL1        0.0588
      3 S         144.0954  141.0917  164.6590 S.2     1  UNL1       -0.0508
      4 C         142.8123  140.3149  164.6386 C.ar    1  UNL1        0.1646
      5 N         142.0020  140.7890  163.4687 N.ar    1  UNL1       -0.2224
      6 C         140.8210  144.3831  160.4159 C.ar    1  UNL1        0.2416
      7 N         141.2560  143.6323  161.6395 N.ar    1  UNL1       -0.2089
      8 C         142.3491  142.6095  161.5426 C.ar    1  UNL1        0.1026
      9 C         143.0070  142.3377  160.2223 C.ar    1  UNL1        0.0224
     10 C         142.5719  143.0886  158.9988 C.ar    1  UNL1        0.0239
     11 C         141.4788  144.1112  159.0956 C.ar    1  UNL1        0.1189
     12 N         141.0437  144.8621  157.8722 N.ar    1  UNL1       -0.2826
     13 C         141.8553  145.8803  157.1274 C.ar    1  UNL1        0.1826
     14 N         141.0338  146.3741  155.9736 N.ar    1  UNL1       -0.2280
     15 C         139.7144  145.6610  156.0052 C.ar    1  UNL1        0.0786
     16 C         138.5870  145.8493  155.0340 C.3     1  UNL1        0.0538
     17 C         139.7206  144.7265  157.1786 C.ar    1  UNL1        0.0963
     18 C         139.6788  146.3424  161.6834 C.3     1  UNL1        0.2543
     19 O         139.7279  145.4057  160.5128 O.3     1  UNL1       -0.4551
     20 N         142.4101  139.2509  165.6165 N.pl3   1  UNL1       -0.2786
     21 H         142.8938  138.3936  165.6378 H       1  UNL1        0.1555
     22 C         141.2711  139.4930  166.5620 C.ar    1  UNL1        0.1274
     23 C         141.3909  139.8944  168.0023 C.ar    1  UNL1        0.0244
     24 C         140.0061  140.0257  168.5637 C.ar    1  UNL1        0.0773
     25 N         139.0305  139.7056  167.4702 N.ar    1  UNL1       -0.1730
     26 N         139.8122  139.3763  166.2331 N.ar    1  UNL1       -0.2420
     27 C         139.8125  140.4199  169.9979 C.3     1  UNL1        0.0474
     28 C         141.0037  140.6827  170.8708 C.3     1  UNL1        0.0067
     29 C         142.3885  140.5514  170.3095 C.3     1  UNL1        0.0052
     30 C         142.5821  140.1572  168.8752 C.3     1  UNL1        0.0305
     31 C         139.2363  138.9970  164.9011 C.3     1  UNL1        0.0879
     32 C         139.6701  137.5775  165.1177 C.3     1  UNL1        0.0245
     33 C         138.8025  140.4165  164.6844 C.3     1  UNL1        0.0245
     34 C         138.6604  138.6177  163.5690 C.3     1  UNL1        0.0245
@<TRIPOS>BOND
     1    18    19    1
     2    19     6    1
     3     6     7   ar
     4     7     8   ar
     5     8     1    1
     6     1     2   ar
     7     2     3   ar
     8     3     4   ar
     9     4    20    1
    10    20    22    1
    11    22    23   ar
    12    23    24   ar
    13    24    25   ar
    14    25    26   ar
    15    26    31    1
    16    31    32    1
    17    31    33    1
    18    31    34    1
    19    24    27    1
    20    27    28    1
    21    28    29    1
    22    29    30    1
    23     4     5   ar
    24     8     9   ar
    25     9    10   ar
    26    10    11   ar
    27    11    12    1
    28    12    13   ar
    29    13    14   ar
    30    14    15   ar
    31    15    16    1
    32    15    17   ar
    33    11     6   ar
    34    17    12   ar
    35     5     1   ar
    36    26    22   ar
    37    30    23    1
    38    20    21    1
@<TRIPOS>MOLECULE
*****
 34 38 0 0 0
SMALL
GASTEIGER

@<TRIPOS>ATOM
      1 C         140.7614  138.1463  162.2899 C.ar    1  UNL1        0.1074
      2 C         141.3113  137.1265  163.2425 C.ar    1  UNL1        0.0588
      3 S         140.8144  137.4614  164.6176 S.2     1  UNL1       -0.0508
      4 C         139.9574  138.6882  164.5148 C.ar    1  UNL1        0.1646
      5 N         139.9247  139.1115  163.0761 N.ar    1  UNL1       -0.2224
      6 C         140.1205  138.5514  158.3943 C.ar    1  UNL1        0.2416
      7 N         139.8763  138.5050  159.8736 N.ar    1  UNL1       -0.2089
      8 C         141.0054  138.1928  160.8106 C.ar    1  UNL1        0.1026
      9 C         142.3785  137.9271  160.2682 C.ar    1  UNL1        0.0224
     10 C         142.6225  137.9736  158.7889 C.ar    1  UNL1        0.0239
     11 C         141.4934  138.2858  157.8520 C.ar    1  UNL1        0.1189
     12 N         141.7374  138.3322  156.3727 N.ar    1  UNL1       -0.2826
     13 C         142.1564  139.5386  155.5856 C.ar    1  UNL1        0.1826
     14 N         142.2832  139.1325  154.1473 N.ar    1  UNL1       -0.2280
     15 C         141.9427  137.6751  154.0453 C.ar    1  UNL1        0.0786
     16 C         141.9400  136.8562  152.7886 C.3     1  UNL1        0.0538
     17 C         141.6054  137.1806  155.4207 C.ar    1  UNL1        0.0963
     18 C         138.6463  140.2901  157.1478 C.3     1  UNL1        0.2543
     19 O         138.9914  138.8636  157.4574 O.3     1  UNL1       -0.4551
     20 N         139.2562  139.3718  165.6512 N.pl3   1  UNL1       -0.2786
     21 H         138.6125  138.8726  166.2040 H       1  UNL1        0.1555
     22 C         139.5360  140.8158  165.9452 C.ar    1  UNL1        0.1274
     23 C         139.0123  141.9903  165.1728 C.ar    1  UNL1        0.0244
     24 C         139.5411  143.2393  165.8134 C.ar    1  UNL1        0.0773
     25 N         140.3916  142.8367  166.9816 N.ar    1  UNL1       -0.1730
     26 N         140.3884  141.3390  167.0630 N.ar    1  UNL1       -0.2420
     27 C         139.1799  144.5818  165.2502 C.3     1  UNL1        0.0474
     28 C         138.2899  144.6752  164.0464 C.3     1  UNL1        0.0067
     29 C         137.7611  143.4262  163.4058 C.3     1  UNL1        0.0052
     30 C         138.1223  142.0837  163.9690 C.3     1  UNL1        0.0305
     31 C         141.1108  140.5099  168.0832 C.3     1  UNL1        0.0879
     32 C         139.9132  140.5749  168.9841 C.3     1  UNL1        0.0245
     33 C         142.3084  140.4449  167.1824 C.3     1  UNL1        0.0245
     34 C         141.8332  139.6808  169.1034 C.3     1  UNL1        0.0245
@<TRIPOS>BOND
     1    18    19    1
     2    19     6    1
     3     6     7   ar
     4     7     8   ar
     5     8     1    1
     6     1     2   ar
     7     2     3   ar
     8     3     4   ar
     9     4    20    1
    10    20    22    1
    11    22    23   ar
    12    23    24   ar
    13    24    25   ar
    14    25    26   ar
    15    26    31    1
    16    31    32    1
    17    31    33    1
    18    31    34    1
    19    24    27    1
    20    27    28    1
    21    28    29    1
    22    29    30    1
    23     4     5   ar
    24     8     9   ar
    25     9    10   ar
    26    10    11   ar
    27    11    12    1
    28    12    13   ar
    29    13    14   ar
    30    14    15   ar
    31    15    16    1
    32    15    17   ar
    33    11     6   ar
    34    17    12   ar
    35     5     1   ar
    36    26    22   ar
    37    30    23    1
    38    20    21    1
@<TRIPOS>MOLECULE
*****
 34 38 0 0 0
SMALL
GASTEIGER

@<TRIPOS>ATOM
      1 C         142.9526  138.5322  158.2808 C.ar    1  UNL1        0.1074
      2 C         142.9369  139.9800  157.8890 C.ar    1  UNL1        0.0588
      3 S         143.3747  140.7861  159.0759 S.2     1  UNL1       -0.0508
      4 C         143.6610  139.8365  160.2011 C.ar    1  UNL1        0.1646
      5 N         143.4001  138.4435  159.7097 N.ar    1  UNL1       -0.2224
      6 C         143.1471  135.0494  156.3880 C.ar    1  UNL1        0.2416
      7 N         143.5145  136.2055  157.2703 N.ar    1  UNL1       -0.2089
      8 C         142.5852  137.3761  157.3985 C.ar    1  UNL1        0.1026
      9 C         141.2886  137.3905  156.6444 C.ar    1  UNL1        0.0224
     10 C         140.9213  136.2343  155.7621 C.ar    1  UNL1        0.0239
     11 C         141.8505  135.0638  155.6340 C.ar    1  UNL1        0.1189
     12 N         141.4832  133.9077  154.7517 N.ar    1  UNL1       -0.2826
     13 C         141.4588  133.9160  153.2518 C.ar    1  UNL1        0.1826
     14 N         141.0363  132.5538  152.7875 N.ar    1  UNL1       -0.2280
     15 C         140.7995  131.7034  154.0004 C.ar    1  UNL1        0.0786
     16 C         140.3632  130.2683  153.9994 C.3     1  UNL1        0.0538
     17 C         141.0758  132.5403  155.2143 C.ar    1  UNL1        0.0963
     18 C         144.2962  132.9644  157.4283 C.3     1  UNL1        0.2543
     19 O         144.0763  133.8790  156.2598 O.3     1  UNL1       -0.4551
     20 N         144.1265  140.2136  161.5763 N.pl3   1  UNL1       -0.2786
     21 H         145.0879  140.3238  161.7576 H       1  UNL1        0.1555
     22 C         143.1273  140.4228  162.6753 C.ar    1  UNL1        0.1274
     23 C         142.2426  139.3701  163.2747 C.ar    1  UNL1        0.0244
     24 C         141.4058  140.0181  164.3376 C.ar    1  UNL1        0.0773
     25 N         141.7733  141.4713  164.3951 N.ar    1  UNL1       -0.1730
     26 N         142.8372  141.7214  163.3677 N.ar    1  UNL1       -0.2420
     27 C         140.4173  139.2012  165.1158 C.3     1  UNL1        0.0474
     28 C         140.2657  137.7364  164.8310 C.3     1  UNL1        0.0067
     29 C         141.1025  137.0884  163.7681 C.3     1  UNL1        0.0052
     30 C         142.0910  137.9052  162.9899 C.3     1  UNL1        0.0305
     31 C         143.4955  143.0388  163.0828 C.3     1  UNL1        0.0879
     32 C         144.5283  142.7495  164.1315 C.3     1  UNL1        0.0245
     33 C         142.4627  143.3281  162.0342 C.3     1  UNL1        0.0245
     34 C         144.1537  144.3562  162.7980 C.3     1  UNL1        0.0245
@<TRIPOS>BOND
     1    18    19    1
     2    19     6    1
     3     6     7   ar
     4     7     8   ar
     5     8     1    1
     6     1     2   ar
     7     2     3   ar
     8     3     4   ar
     9     4    20    1
    10    20    22    1
    11    22    23   ar
    12    23    24   ar
    13    24    25   ar
    14    25    26   ar
    15    26    31    1
    16    31    32    1
    17    31    33    1
    18    31    34    1
    19    24    27    1
    20    27    28    1
    21    28    29    1
    22    29    30    1
    23     4     5   ar
    24     8     9   ar
    25     9    10   ar
    26    10    11   ar
    27    11    12    1
    28    12    13   ar
    29    13    14   ar
    30    14    15   ar
    31    15    16    1
    32    15    17   ar
    33    11     6   ar
    34    17    12   ar
    35     5     1   ar
    36    26    22   ar
    37    30    23    1
    38    20    21    1
@<TRIPOS>MOLECULE
*****
 34 38 0 0 0
SMALL
GASTEIGER

@<TRIPOS>ATOM
      1 C         139.7987  140.2091  159.6748 C.ar    1  UNL1        0.1074
      2 C         139.1319  141.5175  159.3693 C.ar    1  UNL1        0.0588
      3 S         138.8401  142.2040  160.6708 S.2     1  UNL1       -0.0508
      4 C         139.3266  141.3198  161.7805 C.ar    1  UNL1        0.1646
      5 N         139.9190  140.0868  161.1649 N.ar    1  UNL1       -0.2224
      6 C         139.7350  137.5158  156.7606 C.ar    1  UNL1        0.2416
      7 N         139.2701  138.5249  157.7684 N.ar    1  UNL1       -0.2089
      8 C         140.2635  139.2000  158.6670 C.ar    1  UNL1        0.1026
      9 C         141.7218  138.8659  158.5578 C.ar    1  UNL1        0.0224
     10 C         142.1866  137.8568  157.5499 C.ar    1  UNL1        0.0239
     11 C         141.1932  137.1817  156.6514 C.ar    1  UNL1        0.1189
     12 N         141.6580  136.1727  155.6436 N.ar    1  UNL1       -0.2826
     13 C         141.8369  136.4125  154.1737 C.ar    1  UNL1        0.1826
     14 N         142.3150  135.1347  153.5504 N.ar    1  UNL1       -0.2280
     15 C         142.4316  134.1050  154.6351 C.ar    1  UNL1        0.0786
     16 C         142.8761  132.6835  154.4572 C.3     1  UNL1        0.0538
     17 C         142.0255  134.7466  155.9287 C.ar    1  UNL1        0.0963
     18 C         138.1859  137.5712  154.6756 C.3     1  UNL1        0.2543
     19 O         138.7416  136.8408  155.8620 O.3     1  UNL1       -0.4551
     20 N         139.2365  141.6164  163.2482 N.pl3   1  UNL1       -0.2786
     21 H         138.3954  141.9557  163.6311 H       1  UNL1        0.1555
     22 C         140.4280  141.3960  164.1324 C.ar    1  UNL1        0.1274
     23 C         141.5981  142.3225  164.2822 C.ar    1  UNL1        0.0244
     24 C         142.5518  141.7096  165.2644 C.ar    1  UNL1        0.0773
     25 N         141.9711  140.4044  165.7216 N.ar    1  UNL1       -0.1730
     26 N         140.6585  140.2105  165.0220 N.ar    1  UNL1       -0.2420
     27 C         143.8258  142.4192  165.6156 C.3     1  UNL1        0.0474
     28 C         144.1461  143.7418  164.9845 C.3     1  UNL1        0.0067
     29 C         143.1924  144.3547  164.0023 C.3     1  UNL1        0.0052
     30 C         141.9184  143.6451  163.6511 C.3     1  UNL1        0.0305
     31 C         139.7380  139.0372  165.1836 C.3     1  UNL1        0.0879
     32 C         140.5351  138.2722  164.1691 C.3     1  UNL1        0.0245
     33 C         138.9409  139.8023  166.1981 C.3     1  UNL1        0.0245
     34 C         138.8176  137.8640  165.3452 C.3     1  UNL1        0.0245
@<TRIPOS>BOND
     1    18    19    1
     2    19     6    1
     3     6     7   ar
     4     7     8   ar
     5     8     1    1
     6     1     2   ar
     7     2     3   ar
     8     3     4   ar
     9     4    20    1
    10    20    22    1
    11    22    23   ar
    12    23    24   ar
    13    24    25   ar
    14    25    26   ar
    15    26    31    1
    16    31    32    1
    17    31    33    1
    18    31    34    1
    19    24    27    1
    20    27    28    1
    21    28    29    1
    22    29    30    1
    23     4     5   ar
    24     8     9   ar
    25     9    10   ar
    26    10    11   ar
    27    11    12    1
    28    12    13   ar
    29    13    14   ar
    30    14    15   ar
    31    15    16    1
    32    15    17   ar
    33    11     6   ar
    34    17    12   ar
    35     5     1   ar
    36    26    22   ar
    37    30    23    1
    38    20    21    1
