@<TRIPOS>MOLECULE
*****
 46 51 0 0 0
SMALL
GASTEIGER

@<TRIPOS>ATOM
      1 C         138.2697  139.8589  156.1096 C.ar    1  UNL1        0.0500
      2 C         138.3701  140.0309  157.5962 C.ar    1  UNL1        0.0146
      3 C         139.3487  139.2094  158.3819 C.ar    1  UNL1        0.0025
      4 C         140.2270  138.2158  157.6809 C.ar    1  UNL1        0.0043
      5 C         140.1266  138.0437  156.1942 C.ar    1  UNL1        0.0506
      6 C         139.1480  138.8653  155.4086 C.ar    1  UNL1       -0.0038
      7 C         139.0475  138.6932  153.9218 C.3     1  UNL1        0.0325
      8 C         139.4492  139.3815  159.8687 C.ar    1  UNL1        0.0137
      9 C         138.8481  138.3568  160.7845 C.ar    1  UNL1        0.0040
     10 C         138.9485  138.5289  162.2712 C.ar    1  UNL1        0.0343
     11 C         139.6500  139.7256  162.8421 C.ar    1  UNL1        0.1313
     12 N         140.2511  140.7502  161.9263 N.ar    1  UNL1       -0.2350
     13 C         140.1507  140.5781  160.4395 C.ar    1  UNL1        0.0607
     14 C         140.7517  141.6028  159.5236 C.3     1  UNL1        0.0521
     15 N         139.7504  139.8976  164.3288 N.pl3   1  UNL1       -0.2904
     16 C         138.6873  139.3314  165.2228 C.3     1  UNL1        0.1095
     17 C         138.7877  139.5034  166.7095 C.3     1  UNL1        0.0939
     18 N         139.9512  140.2416  167.3023 N.3     1  UNL1       -0.2698
     19 C         141.0143  140.8078  166.4082 C.3     1  UNL1        0.0939
     20 C         140.9139  140.6358  164.9215 C.3     1  UNL1        0.1095
     21 C         140.0516  140.4136  168.7890 C.3     1  UNL1        0.0721
     22 C         140.2210  141.7837  169.3757 C.3     1  UNL1        0.0160
     23 C         140.3614  142.6755  170.5735 C.3     1  UNL1        0.0014
     24 C         140.3741  143.2647  169.1942 C.3     1  UNL1        0.0014
     25 C         141.0048  137.0501  155.4932 C.2     1  UNL1        0.2456
     26 O         142.1871  137.5224  154.7001 O.2     1  UNL1       -0.2702
     27 N         140.7008  135.5842  155.5853 N.am    1  UNL1       -0.3001
     28 H         139.9249  135.2741  156.1059 H       1  UNL1        0.1498
     29 C         141.5791  134.5906  154.8843 C.3     1  UNL1        0.1029
     30 C         142.3349  133.5664  155.6781 C.3     1  UNL1        0.1164
     31 C         141.9893  132.1126  155.5487 C.2     1  UNL1       -0.0330
     32 C         140.8879  131.6827  154.6256 C.3     1  UNL1        0.0269
     33 C         142.7452  131.0884  156.3424 C.2     1  UNL1        0.0042
     34 C         143.8466  131.5183  157.2655 C.2     1  UNL1        0.0508
     35 C         144.6025  130.4943  158.0592 C.3     1  UNL1        0.0493
     36 N         144.1922  132.9722  157.3948 N.am    1  UNL1       -0.1833
     37 C         143.4364  133.9963  156.6011 C.2     1  UNL1        0.2503
     38 O         143.7819  135.4502  156.7305 O.2     1  UNL1       -0.2726
     39 N         137.2910  140.6804  155.3238 N.am    1  UNL1       -0.2590
     40 C         135.9972  140.0732  154.8686 C.2     1  UNL1        0.2288
     41 O         135.6820  138.6444  155.1990 O.2     1  UNL1       -0.2745
     42 C         135.0186  140.8947  154.0828 C.3     1  UNL1        0.0771
     43 C         134.7020  141.7514  152.8930 C.3     1  UNL1        0.0096
     44 C         133.6401  141.4609  153.9117 C.3     1  UNL1        0.0096
     45 C         137.0107  143.2170  155.8107 C.3     1  UNL1        0.0237
     46 C         137.6063  142.1092  154.9934 C.3     1  UNL1        0.0982
@<TRIPOS>BOND
     1    45    46    1
     2    46    39    1
     3    39    40   am
     4    40    41    2
     5    40    42    1
     6    42    43    1
     7    43    44    1
     8    39     1    1
     9     1     2   ar
    10     2     3   ar
    11     3     8    1
    12     8     9   ar
    13     9    10   ar
    14    10    11   ar
    15    11    15    1
    16    15    16    1
    17    16    17    1
    18    17    18    1
    19    18    21    1
    20    21    22    1
    21    22    23    1
    22    23    24    1
    23    18    19    1
    24    19    20    1
    25    11    12   ar
    26    12    13   ar
    27    13    14    1
    28     3     4   ar
    29     4     5   ar
    30     5    25    1
    31    25    26    2
    32    25    27   am
    33    27    29    1
    34    29    30    1
    35    30    31    1
    36    31    32    1
    37    31    33    2
    38    33    34    1
    39    34    35    1
    40    34    36    2
    41    36    37    1
    42    37    38    2
    43     5     6   ar
    44     6     7    1
    45    44    42    1
    46     6     1   ar
    47    13     8   ar
    48    37    30    1
    49    20    15    1
    50    24    22    1
    51    27    28    1
@<TRIPOS>MOLECULE
*****
 46 51 0 0 0
SMALL
GASTEIGER

@<TRIPOS>ATOM
      1 C         139.9930  138.8891  156.3787 C.ar    1  UNL1        0.0500
      2 C         139.8665  139.2571  157.8274 C.ar    1  UNL1        0.0146
      3 C         140.7865  138.6426  158.8403 C.ar    1  UNL1        0.0025
      4 C         141.8330  137.6603  158.4045 C.ar    1  UNL1        0.0043
      5 C         141.9595  137.2923  156.9559 C.ar    1  UNL1        0.0506
      6 C         141.0395  137.9068  155.9430 C.ar    1  UNL1       -0.0038
      7 C         141.1659  137.5389  154.4943 C.3     1  UNL1        0.0325
      8 C         140.6601  139.0106  160.2890 C.ar    1  UNL1        0.0137
      9 C         139.7696  138.2089  161.1914 C.ar    1  UNL1        0.0040
     10 C         139.6431  138.5768  162.6400 C.ar    1  UNL1        0.0343
     11 C         140.4072  139.7464  163.1864 C.ar    1  UNL1        0.1313
     12 N         141.2977  140.5480  162.2840 N.ar    1  UNL1       -0.2350
     13 C         141.4242  140.1801  160.8352 C.ar    1  UNL1        0.0607
     14 C         142.3147  140.9817  159.9328 C.3     1  UNL1        0.0521
     15 N         140.2807  140.1142  164.6350 N.pl3   1  UNL1       -0.2904
     16 C         139.3124  139.3792  165.5137 C.3     1  UNL1        0.1095
     17 C         139.1859  139.7471  166.9624 C.3     1  UNL1        0.0939
     18 N         140.0278  140.8500  167.5324 N.3     1  UNL1       -0.2698
     19 C         140.9961  141.5850  166.6537 C.3     1  UNL1        0.0939
     20 C         141.1225  141.2171  165.2050 C.3     1  UNL1        0.1095
     21 C         139.9013  141.2179  168.9810 C.3     1  UNL1        0.0721
     22 C         140.5184  142.4871  169.4892 C.3     1  UNL1        0.0160
     23 C         140.3861  143.9273  169.8871 C.3     1  UNL1        0.0014
     24 C         141.7195  143.2453  169.9714 C.3     1  UNL1        0.0014
     25 C         143.0060  136.3100  156.5202 C.2     1  UNL1        0.2456
     26 O         144.2810  136.7984  155.8992 O.2     1  UNL1       -0.2702
     27 N         142.7774  134.8392  156.7055 N.am    1  UNL1       -0.3001
     28 H         141.9406  134.5185  157.1131 H       1  UNL1        0.1498
     29 C         143.8239  133.8568  156.2698 C.3     1  UNL1        0.1029
     30 C         143.5722  132.3841  156.4036 C.3     1  UNL1        0.1164
     31 C         144.4550  131.5492  157.2832 C.2     1  UNL1       -0.0330
     32 C         145.5895  132.1870  158.0289 C.3     1  UNL1        0.0269
     33 C         144.2033  130.0765  157.4171 C.2     1  UNL1        0.0042
     34 C         143.0688  129.4387  156.6714 C.2     1  UNL1        0.0508
     35 C         142.8170  127.9661  156.8052 C.3     1  UNL1        0.0493
     36 N         142.1860  130.2737  155.7918 N.am    1  UNL1       -0.1833
     37 C         142.4377  131.7463  155.6579 C.2     1  UNL1        0.2503
     38 O         141.5549  132.5812  154.7783 O.2     1  UNL1       -0.2726
     39 N         139.0730  139.5036  155.3657 N.am    1  UNL1       -0.2590
     40 C         137.9200  138.7127  154.8226 C.2     1  UNL1        0.2288
     41 O         137.6869  137.3074  155.2925 O.2     1  UNL1       -0.2745
     42 C         136.9999  139.3272  153.8096 C.3     1  UNL1        0.0771
     43 C         135.7297  140.0539  153.4805 C.3     1  UNL1        0.0096
     44 C         136.6767  139.6646  152.3843 C.3     1  UNL1        0.0096
     45 C         140.2812  141.1773  153.7882 C.3     1  UNL1        0.0237
     46 C         139.3061  140.9089  154.8959 C.3     1  UNL1        0.0982
@<TRIPOS>BOND
     1    45    46    1
     2    46    39    1
     3    39    40   am
     4    40    41    2
     5    40    42    1
     6    42    43    1
     7    43    44    1
     8    39     1    1
     9     1     2   ar
    10     2     3   ar
    11     3     8    1
    12     8     9   ar
    13     9    10   ar
    14    10    11   ar
    15    11    15    1
    16    15    16    1
    17    16    17    1
    18    17    18    1
    19    18    21    1
    20    21    22    1
    21    22    23    1
    22    23    24    1
    23    18    19    1
    24    19    20    1
    25    11    12   ar
    26    12    13   ar
    27    13    14    1
    28     3     4   ar
    29     4     5   ar
    30     5    25    1
    31    25    26    2
    32    25    27   am
    33    27    29    1
    34    29    30    1
    35    30    31    1
    36    31    32    1
    37    31    33    2
    38    33    34    1
    39    34    35    1
    40    34    36    2
    41    36    37    1
    42    37    38    2
    43     5     6   ar
    44     6     7    1
    45    44    42    1
    46     6     1   ar
    47    13     8   ar
    48    37    30    1
    49    20    15    1
    50    24    22    1
    51    27    28    1
@<TRIPOS>MOLECULE
*****
 46 51 0 0 0
SMALL
GASTEIGER

@<TRIPOS>ATOM
      1 C         139.2459  142.9209  156.6954 C.ar    1  UNL1        0.0500
      2 C         139.4416  142.6850  158.1637 C.ar    1  UNL1        0.0146
      3 C         138.4865  141.8064  158.9159 C.ar    1  UNL1        0.0025
      4 C         137.3357  141.1638  158.1999 C.ar    1  UNL1        0.0043
      5 C         137.1400  141.3998  156.7316 C.ar    1  UNL1        0.0506
      6 C         138.0951  142.2783  155.9793 C.ar    1  UNL1       -0.0038
      7 C         137.8994  142.5143  154.5109 C.3     1  UNL1        0.0325
      8 C         138.6822  141.5704  160.3843 C.ar    1  UNL1        0.0137
      9 C         138.1941  142.5824  161.3782 C.ar    1  UNL1        0.0040
     10 C         138.3898  142.3465  162.8465 C.ar    1  UNL1        0.0343
     11 C         139.0735  141.0985  163.3210 C.ar    1  UNL1        0.1313
     12 N         139.5615  140.0865  162.3272 N.ar    1  UNL1       -0.2350
     13 C         139.3658  140.3225  160.8588 C.ar    1  UNL1        0.0607
     14 C         139.8538  139.3105  159.8650 C.3     1  UNL1        0.0521
     15 N         139.2691  140.8625  164.7894 N.pl3   1  UNL1       -0.2904
     16 C         140.0455  141.8488  165.6106 C.3     1  UNL1        0.1095
     17 C         140.2412  141.6129  167.0789 C.3     1  UNL1        0.0939
     18 N         139.6604  140.3906  167.7261 N.3     1  UNL1       -0.2698
     19 C         138.8839  139.4043  166.9049 C.3     1  UNL1        0.0939
     20 C         138.6883  139.6403  165.4365 C.3     1  UNL1        0.1095
     21 C         139.8560  140.1546  169.1944 C.3     1  UNL1        0.0721
     22 C         141.2291  139.8837  169.7341 C.3     1  UNL1        0.0160
     23 C         142.3732  140.2660  170.6256 C.3     1  UNL1        0.0014
     24 C         142.4631  139.0322  169.7774 C.3     1  UNL1        0.0014
     25 C         135.9892  140.7571  156.0155 C.2     1  UNL1        0.2456
     26 O         136.1970  139.4801  155.2567 O.2     1  UNL1       -0.2702
     27 N         134.6307  141.3916  156.0582 N.am    1  UNL1       -0.3001
     28 H         134.4944  142.2298  156.5563 H       1  UNL1        0.1498
     29 C         133.4800  140.7490  155.3422 C.3     1  UNL1        0.1029
     30 C         132.2722  140.3032  156.1121 C.3     1  UNL1        0.1164
     31 C         130.9323  140.9130  155.8244 C.2     1  UNL1       -0.0330
     32 C         130.8000  141.9685  154.7669 C.3     1  UNL1        0.0269
     33 C         129.7245  140.4672  156.5943 C.2     1  UNL1        0.0042
     34 C         129.8568  139.4117  157.6519 C.2     1  UNL1        0.0508
     35 C         128.6491  138.9659  158.4218 C.3     1  UNL1        0.0493
     36 N         131.1968  138.8019  157.9395 N.am    1  UNL1       -0.1833
     37 C         132.4045  139.2477  157.1696 C.2     1  UNL1        0.2503
     38 O         133.7445  138.6380  157.4572 O.2     1  UNL1       -0.2726
     39 N         140.2010  143.7995  155.9431 N.am    1  UNL1       -0.2590
     40 C         141.4101  143.2029  155.2859 C.2     1  UNL1        0.2288
     41 O         141.6643  141.7276  155.3811 O.2     1  UNL1       -0.2745
     42 C         142.3652  144.0815  154.5336 C.3     1  UNL1        0.0771
     43 C         142.6209  145.2758  153.6630 C.3     1  UNL1        0.0096
     44 C         143.7638  144.4089  154.1013 C.3     1  UNL1        0.0096
     45 C         140.4023  146.1868  156.9483 C.3     1  UNL1        0.0237
     46 C         139.9468  145.2748  155.8480 C.3     1  UNL1        0.0982
@<TRIPOS>BOND
     1    45    46    1
     2    46    39    1
     3    39    40   am
     4    40    41    2
     5    40    42    1
     6    42    43    1
     7    43    44    1
     8    39     1    1
     9     1     2   ar
    10     2     3   ar
    11     3     8    1
    12     8     9   ar
    13     9    10   ar
    14    10    11   ar
    15    11    15    1
    16    15    16    1
    17    16    17    1
    18    17    18    1
    19    18    21    1
    20    21    22    1
    21    22    23    1
    22    23    24    1
    23    18    19    1
    24    19    20    1
    25    11    12   ar
    26    12    13   ar
    27    13    14    1
    28     3     4   ar
    29     4     5   ar
    30     5    25    1
    31    25    26    2
    32    25    27   am
    33    27    29    1
    34    29    30    1
    35    30    31    1
    36    31    32    1
    37    31    33    2
    38    33    34    1
    39    34    35    1
    40    34    36    2
    41    36    37    1
    42    37    38    2
    43     5     6   ar
    44     6     7    1
    45    44    42    1
    46     6     1   ar
    47    13     8   ar
    48    37    30    1
    49    20    15    1
    50    24    22    1
    51    27    28    1
@<TRIPOS>MOLECULE
*****
 46 51 0 0 0
SMALL
GASTEIGER

@<TRIPOS>ATOM
      1 C         138.5607  143.9441  155.8029 C.ar    1  UNL1        0.0500
      2 C         139.1866  143.4581  157.0765 C.ar    1  UNL1        0.0146
      3 C         138.6188  142.2628  157.7827 C.ar    1  UNL1        0.0025
      4 C         137.4250  141.5536  157.2154 C.ar    1  UNL1        0.0043
      5 C         136.7991  142.0396  155.9418 C.ar    1  UNL1        0.0506
      6 C         137.3669  143.2349  155.2356 C.ar    1  UNL1       -0.0038
      7 C         136.7410  143.7210  153.9620 C.3     1  UNL1        0.0325
      8 C         139.2447  141.7767  159.0563 C.ar    1  UNL1        0.0137
      9 C         138.7375  142.2723  160.3780 C.ar    1  UNL1        0.0040
     10 C         139.3634  141.7863  161.6516 C.ar    1  UNL1        0.0343
     11 C         140.4966  140.8046  161.6034 C.ar    1  UNL1        0.1313
     12 N         141.0038  140.3089  160.2817 N.ar    1  UNL1       -0.2350
     13 C         140.3778  140.7950  159.0081 C.ar    1  UNL1        0.0607
     14 C         140.8850  140.2994  157.6863 C.3     1  UNL1        0.0521
     15 N         141.1224  140.3185  162.8770 N.pl3   1  UNL1       -0.2904
     16 C         141.7944  141.2904  163.8010 C.3     1  UNL1        0.1095
     17 C         142.4203  140.8044  165.0746 C.3     1  UNL1        0.0939
     18 N         142.3742  139.3464  165.4242 N.3     1  UNL1       -0.2698
     19 C         141.7023  138.3745  164.5001 C.3     1  UNL1        0.0939
     20 C         141.0764  138.8606  163.2265 C.3     1  UNL1        0.1095
     21 C         143.0001  138.8603  166.6977 C.3     1  UNL1        0.0721
     22 C         142.6983  139.5528  167.9936 C.3     1  UNL1        0.0160
     23 C         142.1524  139.5151  169.3902 C.3     1  UNL1        0.0014
     24 C         142.7216  140.7899  168.8416 C.3     1  UNL1        0.0014
     25 C         135.6053  141.3303  155.3745 C.2     1  UNL1        0.2456
     26 O         135.7942  140.2058  154.4000 O.2     1  UNL1       -0.2702
     27 N         134.2227  141.7456  155.7817 N.am    1  UNL1       -0.3001
     28 H         134.0987  142.4837  156.4213 H       1  UNL1        0.1498
     29 C         133.0289  141.0363  155.2144 C.3     1  UNL1        0.1029
     30 C         132.0659  140.3393  156.1292 C.3     1  UNL1        0.1164
     31 C         130.6058  140.6793  156.0811 C.2     1  UNL1       -0.0330
     32 C         130.1086  141.7164  155.1182 C.3     1  UNL1        0.0269
     33 C         129.6428  139.9823  156.9959 C.2     1  UNL1        0.0042
     34 C         130.1400  138.9452  157.9589 C.2     1  UNL1        0.0508
     35 C         129.1771  138.2482  158.8737 C.3     1  UNL1        0.0493
     36 N         131.6002  138.6052  158.0070 N.am    1  UNL1       -0.1833
     37 C         132.5631  139.3022  157.0922 C.2     1  UNL1        0.2503
     38 O         134.0233  138.9622  157.1403 O.2     1  UNL1       -0.2726
     39 N         139.1285  145.1395  155.0967 N.am    1  UNL1       -0.2590
     40 C         140.2503  144.9682  154.1158 C.2     1  UNL1        0.2288
     41 O         140.8043  143.6016  153.8411 O.2     1  UNL1       -0.2745
     42 C         140.8182  146.1636  153.4095 C.3     1  UNL1        0.0771
     43 C         140.8311  147.6436  153.1658 C.3     1  UNL1        0.0096
     44 C         141.7887  146.7540  152.4300 C.3     1  UNL1        0.0096
     45 C         139.1437  147.3366  156.4831 C.3     1  UNL1        0.0237
     46 C         138.5745  146.5061  155.3713 C.3     1  UNL1        0.0982
@<TRIPOS>BOND
     1    45    46    1
     2    46    39    1
     3    39    40   am
     4    40    41    2
     5    40    42    1
     6    42    43    1
     7    43    44    1
     8    39     1    1
     9     1     2   ar
    10     2     3   ar
    11     3     8    1
    12     8     9   ar
    13     9    10   ar
    14    10    11   ar
    15    11    15    1
    16    15    16    1
    17    16    17    1
    18    17    18    1
    19    18    21    1
    20    21    22    1
    21    22    23    1
    22    23    24    1
    23    18    19    1
    24    19    20    1
    25    11    12   ar
    26    12    13   ar
    27    13    14    1
    28     3     4   ar
    29     4     5   ar
    30     5    25    1
    31    25    26    2
    32    25    27   am
    33    27    29    1
    34    29    30    1
    35    30    31    1
    36    31    32    1
    37    31    33    2
    38    33    34    1
    39    34    35    1
    40    34    36    2
    41    36    37    1
    42    37    38    2
    43     5     6   ar
    44     6     7    1
    45    44    42    1
    46     6     1   ar
    47    13     8   ar
    48    37    30    1
    49    20    15    1
    50    24    22    1
    51    27    28    1
@<TRIPOS>MOLECULE
*****
 46 51 0 0 0
SMALL
GASTEIGER

@<TRIPOS>ATOM
      1 C         139.4225  139.3613  156.4475 C.ar    1  UNL1        0.0500
      2 C         139.6053  139.3810  157.9362 C.ar    1  UNL1        0.0146
      3 C         138.5917  140.0619  158.8073 C.ar    1  UNL1        0.0025
      4 C         137.3953  140.7232  158.1897 C.ar    1  UNL1        0.0043
      5 C         137.2125  140.7035  156.7011 C.ar    1  UNL1        0.0506
      6 C         138.2261  140.0225  155.8300 C.ar    1  UNL1       -0.0038
      7 C         138.0434  140.0028  154.3412 C.3     1  UNL1        0.0325
      8 C         138.7745  140.0816  160.2960 C.ar    1  UNL1        0.0137
      9 C         138.2009  138.9796  161.1367 C.ar    1  UNL1        0.0040
     10 C         138.3836  138.9993  162.6254 C.ar    1  UNL1        0.0343
     11 C         139.1399  140.1210  163.2735 C.ar    1  UNL1        0.1313
     12 N         139.7135  141.2229  162.4328 N.ar    1  UNL1       -0.2350
     13 C         139.5307  141.2032  160.9440 C.ar    1  UNL1        0.0607
     14 C         140.1042  142.3052  160.1034 C.3     1  UNL1        0.0521
     15 N         139.3226  140.1406  164.7621 N.pl3   1  UNL1       -0.2904
     16 C         138.4329  139.3092  165.6380 C.3     1  UNL1        0.1095
     17 C         138.6157  139.3289  167.1267 C.3     1  UNL1        0.0939
     18 N         139.6881  140.1800  167.7395 N.3     1  UNL1       -0.2698
     19 C         140.5778  141.0114  166.8636 C.3     1  UNL1        0.0939
     20 C         140.3951  140.9917  165.3749 C.3     1  UNL1        0.1095
     21 C         139.8709  140.1996  169.2282 C.3     1  UNL1        0.0721
     22 C         141.2220  139.9306  169.8216 C.3     1  UNL1        0.0160
     23 C         142.4293  139.0510  169.9574 C.3     1  UNL1        0.0014
     24 C         142.3547  140.3443  170.7136 C.3     1  UNL1        0.0014
     25 C         136.0161  141.3648  156.0835 C.2     1  UNL1        0.2456
     26 O         136.1428  142.7326  155.4812 O.2     1  UNL1       -0.2702
     27 N         134.6931  140.6582  156.0683 N.am    1  UNL1       -0.3001
     28 H         134.6100  139.7604  156.4637 H       1  UNL1        0.1498
     29 C         133.4967  141.3194  155.4508 C.3     1  UNL1        0.1029
     30 C         132.1151  140.9148  155.8724 C.3     1  UNL1        0.1164
     31 C         130.9291  141.3318  155.0543 C.2     1  UNL1       -0.0330
     32 C         131.1245  142.1533  153.8146 C.3     1  UNL1        0.0269
     33 C         129.5475  140.9272  155.4759 C.2     1  UNL1        0.0042
     34 C         129.3521  140.1057  156.7156 C.2     1  UNL1        0.0508
     35 C         127.9706  139.7011  157.1372 C.3     1  UNL1        0.0493
     36 N         130.5383  139.6887  157.5337 N.am    1  UNL1       -0.1833
     37 C         131.9197  140.0933  157.1121 C.2     1  UNL1        0.2503
     38 O         133.1059  139.6763  157.9302 O.2     1  UNL1       -0.2726
     39 N         140.4361  138.6803  155.5763 N.am    1  UNL1       -0.2590
     40 C         140.2190  137.2612  155.1416 C.2     1  UNL1        0.2288
     41 O         138.9883  136.5231  155.5779 O.2     1  UNL1       -0.2745
     42 C         141.2327  136.5803  154.2704 C.3     1  UNL1        0.0771
     43 C         141.7737  136.2691  152.9064 C.3     1  UNL1        0.0096
     44 C         142.4473  135.7121  154.1254 C.3     1  UNL1        0.0096
     45 C         141.7893  140.8910  155.3981 C.3     1  UNL1        0.0237
     46 C         141.6669  139.4185  155.1400 C.3     1  UNL1        0.0982
@<TRIPOS>BOND
     1    45    46    1
     2    46    39    1
     3    39    40   am
     4    40    41    2
     5    40    42    1
     6    42    43    1
     7    43    44    1
     8    39     1    1
     9     1     2   ar
    10     2     3   ar
    11     3     8    1
    12     8     9   ar
    13     9    10   ar
    14    10    11   ar
    15    11    15    1
    16    15    16    1
    17    16    17    1
    18    17    18    1
    19    18    21    1
    20    21    22    1
    21    22    23    1
    22    23    24    1
    23    18    19    1
    24    19    20    1
    25    11    12   ar
    26    12    13   ar
    27    13    14    1
    28     3     4   ar
    29     4     5   ar
    30     5    25    1
    31    25    26    2
    32    25    27   am
    33    27    29    1
    34    29    30    1
    35    30    31    1
    36    31    32    1
    37    31    33    2
    38    33    34    1
    39    34    35    1
    40    34    36    2
    41    36    37    1
    42    37    38    2
    43     5     6   ar
    44     6     7    1
    45    44    42    1
    46     6     1   ar
    47    13     8   ar
    48    37    30    1
    49    20    15    1
    50    24    22    1
    51    27    28    1
@<TRIPOS>MOLECULE
*****
 46 51 0 0 0
SMALL
GASTEIGER

@<TRIPOS>ATOM
      1 C         140.5410  143.7679  156.3689 C.ar    1  UNL1        0.0500
      2 C         140.8599  142.3149  156.1762 C.ar    1  UNL1        0.0146
      3 C         141.0023  141.4140  157.3671 C.ar    1  UNL1        0.0025
      4 C         140.8257  141.9661  158.7506 C.ar    1  UNL1        0.0043
      5 C         140.5067  143.4191  158.9432 C.ar    1  UNL1        0.0506
      6 C         140.3643  144.3199  157.7524 C.ar    1  UNL1       -0.0038
      7 C         140.0453  145.7730  157.9450 C.3     1  UNL1        0.0325
      8 C         141.3213  139.9610  157.1745 C.ar    1  UNL1        0.0137
      9 C         140.2748  139.0276  156.6418 C.ar    1  UNL1        0.0040
     10 C         140.5938  137.5747  156.4492 C.ar    1  UNL1        0.0343
     11 C         141.9592  137.0550  156.7892 C.ar    1  UNL1        0.1313
     12 N         143.0057  137.9884  157.3219 N.ar    1  UNL1       -0.2350
     13 C         142.6867  139.4414  157.5145 C.ar    1  UNL1        0.0607
     14 C         143.7332  140.3748  158.0471 C.3     1  UNL1        0.0521
     15 N         142.2782  135.6021  156.5966 N.pl3   1  UNL1       -0.2904
     16 C         141.5323  134.7999  155.5717 C.3     1  UNL1        0.1095
     17 C         141.8513  133.3470  155.3791 C.3     1  UNL1        0.0939
     18 N         142.9161  132.6961  156.2114 N.3     1  UNL1       -0.2698
     19 C         143.6619  133.4982  157.2362 C.3     1  UNL1        0.0939
     20 C         143.3429  134.9512  157.4288 C.3     1  UNL1        0.1095
     21 C         143.2350  131.2431  156.0187 C.3     1  UNL1        0.0721
     22 C         143.6866  130.4135  157.1840 C.3     1  UNL1        0.0160
     23 C         144.7309  130.0633  158.2022 C.3     1  UNL1        0.0014
     24 C         143.4244  129.3267  158.1840 C.3     1  UNL1        0.0014
     25 C         140.3301  143.9711  160.3267 C.2     1  UNL1        0.2456
     26 O         138.9829  143.9286  160.9849 O.2     1  UNL1       -0.2702
     27 N         141.5006  144.5657  161.0520 N.am    1  UNL1       -0.3001
     28 H         142.3849  144.5937  160.6201 H       1  UNL1        0.1498
     29 C         141.3240  145.1178  162.4355 C.3     1  UNL1        0.1029
     30 C         141.5518  144.2379  163.6289 C.3     1  UNL1        0.1164
     31 C         140.4581  144.0432  164.6368 C.2     1  UNL1       -0.0330
     32 C         139.1367  144.7284  164.4514 C.3     1  UNL1        0.0269
     33 C         140.6859  143.1634  165.8301 C.2     1  UNL1        0.0042
     34 C         142.0073  142.4782  166.0155 C.2     1  UNL1        0.0508
     35 C         142.2351  141.5984  167.2087 C.3     1  UNL1        0.0493
     36 N         143.1010  142.6729  165.0075 N.am    1  UNL1       -0.1833
     37 C         142.8732  143.5528  163.8142 C.2     1  UNL1        0.2503
     38 O         143.9669  143.7475  162.8062 O.2     1  UNL1       -0.2726
     39 N         140.3986  144.6688  155.1780 N.am    1  UNL1       -0.2590
     40 C         141.6031  145.3622  154.6139 C.2     1  UNL1        0.2288
     41 O         142.9500  145.1546  155.2405 O.2     1  UNL1       -0.2745
     42 C         141.4607  146.2631  153.4230 C.3     1  UNL1        0.0771
     43 C         141.7637  146.5768  151.9879 C.3     1  UNL1        0.0096
     44 C         140.9111  147.5099  152.7956 C.3     1  UNL1        0.0096
     45 C         137.8115  144.4539  155.2818 C.3     1  UNL1        0.0237
     46 C         139.0516  144.8763  154.5514 C.3     1  UNL1        0.0982
@<TRIPOS>BOND
     1    45    46    1
     2    46    39    1
     3    39    40   am
     4    40    41    2
     5    40    42    1
     6    42    43    1
     7    43    44    1
     8    39     1    1
     9     1     2   ar
    10     2     3   ar
    11     3     8    1
    12     8     9   ar
    13     9    10   ar
    14    10    11   ar
    15    11    15    1
    16    15    16    1
    17    16    17    1
    18    17    18    1
    19    18    21    1
    20    21    22    1
    21    22    23    1
    22    23    24    1
    23    18    19    1
    24    19    20    1
    25    11    12   ar
    26    12    13   ar
    27    13    14    1
    28     3     4   ar
    29     4     5   ar
    30     5    25    1
    31    25    26    2
    32    25    27   am
    33    27    29    1
    34    29    30    1
    35    30    31    1
    36    31    32    1
    37    31    33    2
    38    33    34    1
    39    34    35    1
    40    34    36    2
    41    36    37    1
    42    37    38    2
    43     5     6   ar
    44     6     7    1
    45    44    42    1
    46     6     1   ar
    47    13     8   ar
    48    37    30    1
    49    20    15    1
    50    24    22    1
    51    27    28    1
@<TRIPOS>MOLECULE
*****
 46 51 0 0 0
SMALL
GASTEIGER

@<TRIPOS>ATOM
      1 C         140.8284  142.9948  159.5028 C.ar    1  UNL1        0.0500
      2 C         141.0503  141.5478  159.1759 C.ar    1  UNL1        0.0146
      3 C         141.3778  141.1380  157.7707 C.ar    1  UNL1        0.0025
      4 C         141.4835  142.1753  156.6923 C.ar    1  UNL1        0.0043
      5 C         141.2617  143.6223  157.0192 C.ar    1  UNL1        0.0506
      6 C         140.9341  144.0320  158.4244 C.ar    1  UNL1       -0.0038
      7 C         140.7122  145.4791  158.7514 C.3     1  UNL1        0.0325
      8 C         141.5997  139.6909  157.4437 C.ar    1  UNL1        0.0137
      9 C         140.4286  138.7991  157.1555 C.ar    1  UNL1        0.0040
     10 C         140.6504  137.3521  156.8286 C.ar    1  UNL1        0.0343
     11 C         142.0434  136.7969  156.7899 C.ar    1  UNL1        0.1313
     12 N         143.2145  137.6887  157.0781 N.ar    1  UNL1       -0.2350
     13 C         142.9926  139.1358  157.4050 C.ar    1  UNL1        0.0607
     14 C         144.1637  140.0277  157.6932 C.3     1  UNL1        0.0521
     15 N         142.2652  135.3499  156.4629 N.pl3   1  UNL1       -0.2904
     16 C         143.3476  134.5807  157.1606 C.3     1  UNL1        0.1095
     17 C         143.5694  133.1337  156.8337 C.3     1  UNL1        0.0939
     18 N         142.7088  132.4558  155.8090 N.3     1  UNL1       -0.2698
     19 C         141.6264  133.2249  155.1114 C.3     1  UNL1        0.0939
     20 C         141.4046  134.6720  155.4384 C.3     1  UNL1        0.1095
     21 C         142.9306  131.0088  155.4821 C.3     1  UNL1        0.0721
     22 C         143.1861  130.0219  156.5824 C.3     1  UNL1        0.0160
     23 C         143.8396  129.6700  157.8859 C.3     1  UNL1        0.0014
     24 C         142.9752  128.6644  157.1847 C.3     1  UNL1        0.0014
     25 C         141.3674  144.6596  155.9408 C.2     1  UNL1        0.2456
     26 O         142.6991  145.2663  155.6117 O.2     1  UNL1       -0.2702
     27 N         140.1413  145.0901  155.1915 N.am    1  UNL1       -0.3001
     28 H         139.2673  144.6919  155.4075 H       1  UNL1        0.1498
     29 C         140.2470  146.1274  154.1131 C.3     1  UNL1        0.1029
     30 C         139.8391  147.5437  154.3922 C.3     1  UNL1        0.1164
     31 C         140.2269  148.6371  153.4414 C.2     1  UNL1       -0.0330
     32 C         141.0226  148.3143  152.2115 C.3     1  UNL1        0.0269
     33 C         139.8190  150.0533  153.7205 C.2     1  UNL1        0.0042
     34 C         139.0233  150.3761  154.9504 C.2     1  UNL1        0.0508
     35 C         138.6154  151.7923  155.2295 C.3     1  UNL1        0.0493
     36 N         138.6355  149.2826  155.9012 N.am    1  UNL1       -0.1833
     37 C         139.0434  147.8664  155.6221 C.2     1  UNL1        0.2503
     38 O         138.6556  146.7729  156.5729 O.2     1  UNL1       -0.2726
     39 N         140.5009  143.4046  160.9081 N.am    1  UNL1       -0.2590
     40 C         139.0803  143.3679  161.3883 C.2     1  UNL1        0.2288
     41 O         137.9872  142.9214  160.4631 O.2     1  UNL1       -0.2745
     42 C         138.7527  143.7777  162.7936 C.3     1  UNL1        0.0771
     43 C         138.1850  143.4512  164.1430 C.3     1  UNL1        0.0096
     44 C         138.7531  144.8139  163.8781 C.3     1  UNL1        0.0096
     45 C         142.3604  142.8391  162.6322 C.3     1  UNL1        0.0237
     46 C         141.5939  143.8511  161.8332 C.3     1  UNL1        0.0982
@<TRIPOS>BOND
     1    45    46    1
     2    46    39    1
     3    39    40   am
     4    40    41    2
     5    40    42    1
     6    42    43    1
     7    43    44    1
     8    39     1    1
     9     1     2   ar
    10     2     3   ar
    11     3     8    1
    12     8     9   ar
    13     9    10   ar
    14    10    11   ar
    15    11    15    1
    16    15    16    1
    17    16    17    1
    18    17    18    1
    19    18    21    1
    20    21    22    1
    21    22    23    1
    22    23    24    1
    23    18    19    1
    24    19    20    1
    25    11    12   ar
    26    12    13   ar
    27    13    14    1
    28     3     4   ar
    29     4     5   ar
    30     5    25    1
    31    25    26    2
    32    25    27   am
    33    27    29    1
    34    29    30    1
    35    30    31    1
    36    31    32    1
    37    31    33    2
    38    33    34    1
    39    34    35    1
    40    34    36    2
    41    36    37    1
    42    37    38    2
    43     5     6   ar
    44     6     7    1
    45    44    42    1
    46     6     1   ar
    47    13     8   ar
    48    37    30    1
    49    20    15    1
    50    24    22    1
    51    27    28    1
@<TRIPOS>MOLECULE
*****
 46 51 0 0 0
SMALL
GASTEIGER

@<TRIPOS>ATOM
      1 C         140.3819  143.3620  156.4541 C.ar    1  UNL1        0.0500
      2 C         140.7435  141.9297  156.1939 C.ar    1  UNL1        0.0146
      3 C         140.9107  140.9781  157.3412 C.ar    1  UNL1        0.0025
      4 C         140.7162  141.4588  158.7488 C.ar    1  UNL1        0.0043
      5 C         140.3546  142.8911  159.0089 C.ar    1  UNL1        0.0506
      6 C         140.1874  143.8427  157.8616 C.ar    1  UNL1       -0.0038
      7 C         139.8258  145.2751  158.1218 C.3     1  UNL1        0.0325
      8 C         141.2723  139.5458  157.0811 C.ar    1  UNL1        0.0137
      9 C         140.2052  138.5576  156.7139 C.ar    1  UNL1        0.0040
     10 C         140.5668  137.1253  156.4537 C.ar    1  UNL1        0.0343
     11 C         141.9955  136.6811  156.5607 C.ar    1  UNL1        0.1313
     12 N         143.0627  137.6692  156.9279 N.ar    1  UNL1       -0.2350
     13 C         142.7010  139.1016  157.1881 C.ar    1  UNL1        0.0607
     14 C         143.7681  140.0897  157.5553 C.3     1  UNL1        0.0521
     15 N         142.3571  135.2488  156.3006 N.pl3   1  UNL1       -0.2904
     16 C         143.5510  134.6420  156.9762 C.3     1  UNL1        0.1095
     17 C         143.9126  133.2097  156.7160 C.3     1  UNL1        0.0939
     18 N         143.0802  132.3841  155.7802 N.3     1  UNL1       -0.2698
     19 C         141.8863  132.9909  155.1046 C.3     1  UNL1        0.0939
     20 C         141.5248  134.4233  155.3648 C.3     1  UNL1        0.1095
     21 C         143.4418  130.9518  155.5201 C.3     1  UNL1        0.0721
     22 C         143.6691  130.4790  154.1148 C.3     1  UNL1        0.0160
     23 C         143.9988  129.3767  153.1524 C.3     1  UNL1        0.0014
     24 C         143.7331  130.7624  152.6432 C.3     1  UNL1        0.0014
     25 C         140.1601  143.3717  160.4165 C.2     1  UNL1        0.2456
     26 O         141.3425  143.8069  161.2305 O.2     1  UNL1       -0.2702
     27 N         138.7833  143.4172  161.0100 N.am    1  UNL1       -0.3001
     28 H         138.0073  143.1315  160.4758 H       1  UNL1        0.1498
     29 C         138.5889  143.8978  162.4176 C.3     1  UNL1        0.1029
     30 C         138.8006  142.9577  163.5671 C.3     1  UNL1        0.1164
     31 C         139.7997  143.2917  164.6349 C.2     1  UNL1       -0.0330
     32 C         140.5871  144.5658  164.5532 C.3     1  UNL1        0.0269
     33 C         140.0114  142.3516  165.7845 C.2     1  UNL1        0.0042
     34 C         139.2240  141.0775  165.8662 C.2     1  UNL1        0.0508
     35 C         139.4356  140.1374  167.0156 C.3     1  UNL1        0.0493
     36 N         138.2248  140.7435  164.7983 N.am    1  UNL1       -0.1833
     37 C         138.0132  141.6836  163.6488 C.2     1  UNL1        0.2503
     38 O         137.0140  141.3497  162.5809 O.2     1  UNL1       -0.2726
     39 N         140.2147  144.3137  155.3067 N.am    1  UNL1       -0.2590
     40 C         141.3433  145.2201  154.9135 C.2     1  UNL1        0.2288
     41 O         142.6392  145.1748  155.6676 O.2     1  UNL1       -0.2745
     42 C         141.1762  146.1718  153.7661 C.3     1  UNL1        0.0771
     43 C         140.7607  147.5144  153.2420 C.3     1  UNL1        0.0096
     44 C         141.3021  146.4775  152.3030 C.3     1  UNL1        0.0096
     45 C         137.8116  145.2579  155.0174 C.3     1  UNL1        0.0237
     46 C         138.9188  144.3590  154.5526 C.3     1  UNL1        0.0982
@<TRIPOS>BOND
     1    45    46    1
     2    46    39    1
     3    39    40   am
     4    40    41    2
     5    40    42    1
     6    42    43    1
     7    43    44    1
     8    39     1    1
     9     1     2   ar
    10     2     3   ar
    11     3     8    1
    12     8     9   ar
    13     9    10   ar
    14    10    11   ar
    15    11    15    1
    16    15    16    1
    17    16    17    1
    18    17    18    1
    19    18    21    1
    20    21    22    1
    21    22    23    1
    22    23    24    1
    23    18    19    1
    24    19    20    1
    25    11    12   ar
    26    12    13   ar
    27    13    14    1
    28     3     4   ar
    29     4     5   ar
    30     5    25    1
    31    25    26    2
    32    25    27   am
    33    27    29    1
    34    29    30    1
    35    30    31    1
    36    31    32    1
    37    31    33    2
    38    33    34    1
    39    34    35    1
    40    34    36    2
    41    36    37    1
    42    37    38    2
    43     5     6   ar
    44     6     7    1
    45    44    42    1
    46     6     1   ar
    47    13     8   ar
    48    37    30    1
    49    20    15    1
    50    24    22    1
    51    27    28    1
@<TRIPOS>MOLECULE
*****
 46 51 0 0 0
SMALL
GASTEIGER

@<TRIPOS>ATOM
      1 C         140.5005  140.8049  158.2777 C.ar    1  UNL1        0.0500
      2 C         141.7520  141.1555  157.5288 C.ar    1  UNL1        0.0146
      3 C         143.0862  140.7055  158.0457 C.ar    1  UNL1        0.0025
      4 C         143.1690  139.9048  159.3115 C.ar    1  UNL1        0.0043
      5 C         141.9175  139.5542  160.0603 C.ar    1  UNL1        0.0506
      6 C         140.5833  140.0042  159.5434 C.ar    1  UNL1       -0.0038
      7 C         139.3317  139.6535  160.2923 C.3     1  UNL1        0.0325
      8 C         144.3378  141.0561  157.2969 C.ar    1  UNL1        0.0137
      9 C         144.7021  140.3040  156.0513 C.ar    1  UNL1        0.0040
     10 C         145.9536  140.6545  155.3025 C.ar    1  UNL1        0.0343
     11 C         146.8409  141.7574  155.7992 C.ar    1  UNL1        0.1313
     12 N         146.4765  142.5096  157.0448 N.ar    1  UNL1       -0.2350
     13 C         145.2249  142.1589  157.7936 C.ar    1  UNL1        0.0607
     14 C         144.8606  142.9111  159.0392 C.3     1  UNL1        0.0521
     15 N         148.0923  142.1080  155.0504 N.pl3   1  UNL1       -0.2904
     16 C         148.0226  143.0098  153.8538 C.3     1  UNL1        0.1095
     17 C         149.2741  143.3604  153.1049 C.3     1  UNL1        0.0939
     18 N         150.5954  142.8091  153.5527 N.3     1  UNL1       -0.2698
     19 C         150.6651  141.9073  154.7493 C.3     1  UNL1        0.0939
     20 C         149.4135  141.5567  155.4981 C.3     1  UNL1        0.1095
     21 C         151.8469  143.1597  152.8038 C.3     1  UNL1        0.0721
     22 C         152.8604  144.0753  153.4240 C.3     1  UNL1        0.0160
     23 C         154.1807  144.7844  153.3613 C.3     1  UNL1        0.0014
     24 C         153.2956  144.9518  154.5607 C.3     1  UNL1        0.0014
     25 C         142.0003  138.7535  161.3260 C.2     1  UNL1        0.2456
     26 O         141.6660  137.2913  161.3118 O.2     1  UNL1       -0.2702
     27 N         142.4174  139.4150  162.6060 N.am    1  UNL1       -0.3001
     28 H         142.6368  140.3747  162.6154 H       1  UNL1        0.1498
     29 C         142.5001  138.6143  163.8717 C.3     1  UNL1        0.1029
     30 C         141.9794  139.1868  165.1568 C.3     1  UNL1        0.1164
     31 C         142.7171  138.9429  166.4398 C.2     1  UNL1       -0.0330
     32 C         143.9755  138.1266  166.4380 C.3     1  UNL1        0.0269
     33 C         142.1964  139.5154  167.7248 C.2     1  UNL1        0.0042
     34 C         140.9380  140.3318  167.7267 C.2     1  UNL1        0.0508
     35 C         140.4173  140.9043  169.0116 C.3     1  UNL1        0.0493
     36 N         140.2003  140.5756  166.4435 N.am    1  UNL1       -0.1833
     37 C         140.7210  140.0031  165.1586 C.2     1  UNL1        0.2503
     38 O         139.9833  140.2470  163.8755 O.2     1  UNL1       -0.2726
     39 N         139.1662  141.2549  157.7608 N.am    1  UNL1       -0.2590
     40 C         138.3771  140.3653  156.8466 C.2     1  UNL1        0.2288
     41 O         138.9224  139.0256  156.4491 O.2     1  UNL1       -0.2745
     42 C         137.0428  140.8153  156.3297 C.3     1  UNL1        0.0771
     43 C         135.5447  140.7735  156.3909 C.3     1  UNL1        0.0096
     44 C         136.2299  141.6365  155.3733 C.3     1  UNL1        0.0096
     45 C         139.3203  143.4079  159.2067 C.3     1  UNL1        0.0237
     46 C         138.6209  142.5946  158.1582 C.3     1  UNL1        0.0982
@<TRIPOS>BOND
     1    45    46    1
     2    46    39    1
     3    39    40   am
     4    40    41    2
     5    40    42    1
     6    42    43    1
     7    43    44    1
     8    39     1    1
     9     1     2   ar
    10     2     3   ar
    11     3     8    1
    12     8     9   ar
    13     9    10   ar
    14    10    11   ar
    15    11    15    1
    16    15    16    1
    17    16    17    1
    18    17    18    1
    19    18    21    1
    20    21    22    1
    21    22    23    1
    22    23    24    1
    23    18    19    1
    24    19    20    1
    25    11    12   ar
    26    12    13   ar
    27    13    14    1
    28     3     4   ar
    29     4     5   ar
    30     5    25    1
    31    25    26    2
    32    25    27   am
    33    27    29    1
    34    29    30    1
    35    30    31    1
    36    31    32    1
    37    31    33    2
    38    33    34    1
    39    34    35    1
    40    34    36    2
    41    36    37    1
    42    37    38    2
    43     5     6   ar
    44     6     7    1
    45    44    42    1
    46     6     1   ar
    47    13     8   ar
    48    37    30    1
    49    20    15    1
    50    24    22    1
    51    27    28    1
