@<TRIPOS>MOLECULE
*****
 32 36 0 0 0
SMALL
GASTEIGER

@<TRIPOS>ATOM
      1 N         140.8206  139.4308  160.8068 N.ar    1  UNL1       -0.3072
      2 C         142.2061  139.3710  161.3785 C.ar    1  UNL1        0.1438
      3 N         143.0756  138.6264  160.4092 N.ar    1  UNL1       -0.2268
      4 C         142.2275  138.2261  159.2385 C.ar    1  UNL1        0.0992
      5 C         142.5443  137.4730  157.9806 C.ar    1  UNL1        0.0273
      6 C         141.4674  137.2171  156.9683 C.ar    1  UNL1        0.0362
      7 BR        141.7841  136.4641  155.7103 Br      1  UNL1       -0.0489
      8 C         140.0737  137.7143  157.2141 C.ar    1  UNL1        0.0083
      9 C         139.7569  138.4673  158.4721 C.ar    1  UNL1        0.0193
     10 C         140.8338  138.7232  159.4843 C.ar    1  UNL1        0.0791
     11 C         142.6450  139.9536  162.6892 C.2     1  UNL1        0.0325
     12 C         142.7499  141.4410  162.8513 C.2     1  UNL1       -0.0219
     13 C         143.1888  142.0236  164.1621 C.3     1  UNL1        0.0395
     14 C         144.0914  143.2079  164.3425 C.3     1  UNL1        0.0231
     15 C         144.2626  143.4403  165.8145 C.3     1  UNL1        0.0725
     16 N         143.4658  142.3996  166.5438 N.3     1  UNL1       -0.2724
     17 C         142.8021  141.5239  165.5226 C.3     1  UNL1        0.0765
     18 C         143.3525  142.2591  168.0329 C.3     1  UNL1        0.0721
     19 C         142.0413  141.8759  168.6525 C.3     1  UNL1        0.0160
     20 C         141.5620  140.4566  168.5762 C.3     1  UNL1        0.0014
     21 C         140.2507  140.0735  169.1958 C.3     1  UNL1        0.0000
     22 C         139.4188  141.1096  169.8918 C.3     1  UNL1        0.0000
     23 C         139.8982  142.5289  169.9681 C.3     1  UNL1        0.0000
     24 C         141.2094  142.9120  169.3485 C.3     1  UNL1        0.0014
     25 C         139.6307  140.0837  161.4456 C.3     1  UNL1        0.1342
     26 CL        137.9278  138.4702  166.9679 Cl      1  UNL1       -0.0822
     27 C         138.3535  138.8736  165.5873 C.ar    1  UNL1        0.0577
     28 C         138.7857  137.8296  164.6007 C.ar    1  UNL1        0.0111
     29 C         139.2114  138.2330  163.2202 C.ar    1  UNL1       -0.0015
     30 C         139.2050  139.6803  162.8261 C.ar    1  UNL1        0.0005
     31 C         138.7728  140.7243  163.8127 C.ar    1  UNL1       -0.0015
     32 C         138.3471  140.3209  165.1933 C.ar    1  UNL1        0.0111
@<TRIPOS>BOND
     1    26    27    1
     2    27    28   ar
     3    28    29   ar
     4    29    30   ar
     5    30    25    1
     6    25     1    1
     7     1     2   ar
     8     2    11    1
     9    11    12    2
    10    12    13    1
    11    13    14    1
    12    14    15    1
    13    15    16    1
    14    16    18    1
    15    18    19    1
    16    19    20    1
    17    20    21    1
    18    21    22    1
    19    22    23    1
    20    23    24    1
    21    16    17    1
    22     2     3   ar
    23     3     4   ar
    24     4     5   ar
    25     5     6   ar
    26     6     7    1
    27     6     8   ar
    28     8     9   ar
    29     9    10   ar
    30    30    31   ar
    31    31    32   ar
    32    32    27   ar
    33    10     1   ar
    34    17    13    1
    35    10     4   ar
    36    24    19    1
@<TRIPOS>MOLECULE
*****
 32 36 0 0 0
SMALL
GASTEIGER

@<TRIPOS>ATOM
      1 N         140.4160  144.2120  160.8321 N.ar    1  UNL1       -0.3072
      2 C         139.3310  143.1890  160.9942 C.ar    1  UNL1        0.1438
      3 N         138.7378  142.9245  159.6421 N.ar    1  UNL1       -0.2268
      4 C         139.4561  143.7840  158.6445 C.ar    1  UNL1        0.0992
      5 C         139.2997  143.9448  157.1614 C.ar    1  UNL1        0.0273
      6 C         140.1805  144.9014  156.4137 C.ar    1  UNL1        0.0362
      7 BR        140.0242  145.0623  154.9306 Br      1  UNL1       -0.0489
      8 C         141.2178  145.6971  157.1492 C.ar    1  UNL1        0.0083
      9 C         141.3742  145.5363  158.6323 C.ar    1  UNL1        0.0193
     10 C         140.4933  144.5797  159.3799 C.ar    1  UNL1        0.0791
     11 C         138.9128  142.5439  162.2821 C.2     1  UNL1        0.0325
     12 C         139.8134  141.5466  162.9486 C.2     1  UNL1       -0.0219
     13 C         139.3952  140.9014  164.2365 C.3     1  UNL1        0.0395
     14 C         138.2052  140.0090  164.4298 C.3     1  UNL1        0.0231
     15 C         138.1680  139.5914  165.8701 C.3     1  UNL1        0.0725
     16 N         139.3350  140.2258  166.5669 N.3     1  UNL1       -0.2724
     17 C         140.0935  141.0355  165.5573 C.3     1  UNL1        0.0765
     18 C         139.6826  140.0768  168.0184 C.3     1  UNL1        0.0721
     19 C         140.7038  140.9816  168.6418 C.3     1  UNL1        0.0160
     20 C         140.3049  142.3466  169.1187 C.3     1  UNL1        0.0014
     21 C         141.3261  143.2514  169.7421 C.3     1  UNL1        0.0000
     22 C         142.7462  142.7911  169.8887 C.3     1  UNL1        0.0000
     23 C         143.1451  141.4260  169.4118 C.3     1  UNL1        0.0000
     24 C         142.1239  140.5212  168.7884 C.3     1  UNL1        0.0014
     25 C         141.2733  144.7695  161.9296 C.3     1  UNL1        0.1342
     26 CL        145.9803  141.6406  163.9428 Cl      1  UNL1       -0.0822
     27 C         144.8035  142.4228  163.4396 C.ar    1  UNL1        0.0577
     28 C         144.5422  142.5194  161.9656 C.ar    1  UNL1        0.0111
     29 C         143.3654  143.3016  161.4623 C.ar    1  UNL1       -0.0015
     30 C         142.4500  143.9873  162.4329 C.ar    1  UNL1        0.0005
     31 C         142.7114  143.8906  163.9068 C.ar    1  UNL1       -0.0015
     32 C         143.8881  143.1084  164.4101 C.ar    1  UNL1        0.0111
@<TRIPOS>BOND
     1    26    27    1
     2    27    28   ar
     3    28    29   ar
     4    29    30   ar
     5    30    25    1
     6    25     1    1
     7     1     2   ar
     8     2    11    1
     9    11    12    2
    10    12    13    1
    11    13    14    1
    12    14    15    1
    13    15    16    1
    14    16    18    1
    15    18    19    1
    16    19    20    1
    17    20    21    1
    18    21    22    1
    19    22    23    1
    20    23    24    1
    21    16    17    1
    22     2     3   ar
    23     3     4   ar
    24     4     5   ar
    25     5     6   ar
    26     6     7    1
    27     6     8   ar
    28     8     9   ar
    29     9    10   ar
    30    30    31   ar
    31    31    32   ar
    32    32    27   ar
    33    10     1   ar
    34    17    13    1
    35    10     4   ar
    36    24    19    1
@<TRIPOS>MOLECULE
*****
 32 36 0 0 0
SMALL
GASTEIGER

@<TRIPOS>ATOM
      1 N         140.7976  138.6908  159.4514 N.ar    1  UNL1       -0.3072
      2 C         142.1176  138.7326  160.1626 C.ar    1  UNL1        0.1438
      3 N         143.1373  138.0671  159.2866 N.ar    1  UNL1       -0.2268
      4 C         142.4476  137.6140  158.0341 C.ar    1  UNL1        0.0992
      5 C         142.9494  136.9002  156.8140 C.ar    1  UNL1        0.0273
      6 C         142.0052  136.5719  155.6957 C.ar    1  UNL1        0.0362
      7 BR        142.5070  135.8581  154.4755 Br      1  UNL1       -0.0489
      8 C         140.5591  136.9573  155.7975 C.ar    1  UNL1        0.0083
      9 C         140.0573  137.6711  157.0176 C.ar    1  UNL1        0.0193
     10 C         141.0015  137.9994  158.1359 C.ar    1  UNL1        0.0791
     11 C         142.3731  139.3343  161.5127 C.2     1  UNL1        0.0325
     12 C         142.3871  138.4613  162.7323 C.2     1  UNL1       -0.0219
     13 C         142.6426  139.0629  164.0824 C.3     1  UNL1        0.0395
     14 C         142.6836  138.3205  165.3851 C.3     1  UNL1        0.0231
     15 C         142.9682  139.3114  166.4747 C.3     1  UNL1        0.0725
     16 N         143.1031  140.6663  165.8454 N.3     1  UNL1       -0.2724
     17 C         142.9018  140.5128  164.3668 C.3     1  UNL1        0.0765
     18 C         143.3890  141.9495  166.5677 C.3     1  UNL1        0.0721
     19 C         142.6137  142.3043  167.8018 C.3     1  UNL1        0.0160
     20 C         143.3154  142.4124  169.1231 C.3     1  UNL1        0.0014
     21 C         142.5401  142.7672  170.3573 C.3     1  UNL1        0.0000
     22 C         141.0631  143.0139  170.2701 C.3     1  UNL1        0.0000
     23 C         140.3614  142.9058  168.9488 C.3     1  UNL1        0.0000
     24 C         141.1367  142.5510  167.7146 C.3     1  UNL1        0.0014
     25 C         139.5013  139.2433  159.9654 C.3     1  UNL1        0.1342
     26 CL        138.2720  139.0441  165.8347 Cl      1  UNL1       -0.0822
     27 C         138.5793  139.0940  164.3673 C.ar    1  UNL1        0.0577
     28 C         138.7270  137.8206  163.5884 C.ar    1  UNL1        0.0111
     29 C         139.0343  137.8704  162.1211 C.ar    1  UNL1       -0.0015
     30 C         139.1940  139.1935  161.4326 C.ar    1  UNL1        0.0005
     31 C         139.0463  140.4669  162.2116 C.ar    1  UNL1       -0.0015
     32 C         138.7390  140.4170  163.6790 C.ar    1  UNL1        0.0111
@<TRIPOS>BOND
     1    26    27    1
     2    27    28   ar
     3    28    29   ar
     4    29    30   ar
     5    30    25    1
     6    25     1    1
     7     1     2   ar
     8     2    11    1
     9    11    12    2
    10    12    13    1
    11    13    14    1
    12    14    15    1
    13    15    16    1
    14    16    18    1
    15    18    19    1
    16    19    20    1
    17    20    21    1
    18    21    22    1
    19    22    23    1
    20    23    24    1
    21    16    17    1
    22     2     3   ar
    23     3     4   ar
    24     4     5   ar
    25     5     6   ar
    26     6     7    1
    27     6     8   ar
    28     8     9   ar
    29     9    10   ar
    30    30    31   ar
    31    31    32   ar
    32    32    27   ar
    33    10     1   ar
    34    17    13    1
    35    10     4   ar
    36    24    19    1
@<TRIPOS>MOLECULE
*****
 32 36 0 0 0
SMALL
GASTEIGER

@<TRIPOS>ATOM
      1 N         141.0888  143.6196  161.4297 N.ar    1  UNL1       -0.3072
      2 C         142.3268  142.8160  161.6973 C.ar    1  UNL1        0.1438
      3 N         143.1548  142.8098  160.4466 N.ar    1  UNL1       -0.2268
      4 C         142.4286  143.6096  159.4059 C.ar    1  UNL1        0.0992
      5 C         142.7650  143.9468  157.9836 C.ar    1  UNL1        0.0273
      6 C         141.8246  144.7845  157.1689 C.ar    1  UNL1        0.0362
      7 BR        142.1610  145.1217  155.7465 Br      1  UNL1       -0.0489
      8 C         140.5478  145.2850  157.7764 C.ar    1  UNL1        0.0083
      9 C         140.2113  144.9478  159.1988 C.ar    1  UNL1        0.0193
     10 C         141.1517  144.1101  160.0135 C.ar    1  UNL1        0.0791
     11 C         142.6755  142.1377  162.9890 C.2     1  UNL1        0.0325
     12 C         142.4496  140.6632  163.1466 C.2     1  UNL1       -0.0219
     13 C         142.7983  139.9849  164.4382 C.3     1  UNL1        0.0395
     14 C         143.7247  138.8161  164.5982 C.3     1  UNL1        0.0231
     15 C         143.7808  138.4651  166.0555 C.3     1  UNL1        0.0725
     16 N         142.8890  139.4169  166.7962 N.3     1  UNL1       -0.2724
     17 C         142.2817  140.3563  165.7967 C.3     1  UNL1        0.0765
     18 C         142.6469  139.4277  168.2764 C.3     1  UNL1        0.0721
     19 C         141.7466  140.4636  168.8817 C.3     1  UNL1        0.0160
     20 C         140.3477  140.0996  169.2826 C.3     1  UNL1        0.0014
     21 C         139.4474  141.1355  169.8878 C.3     1  UNL1        0.0000
     22 C         139.9458  142.5354  170.0922 C.3     1  UNL1        0.0000
     23 C         141.3447  142.8994  169.6913 C.3     1  UNL1        0.0000
     24 C         142.2450  141.8635  169.0861 C.3     1  UNL1        0.0014
     25 C         139.9822  143.8860  162.4066 C.3     1  UNL1        0.1342
     26 CL        138.0104  139.4874  165.9792 Cl      1  UNL1       -0.0822
     27 C         138.5033  140.5870  165.0860 C.ar    1  UNL1        0.0577
     28 C         139.1583  141.7988  165.6799 C.ar    1  UNL1        0.0111
     29 C         139.6512  142.8985  164.7868 C.ar    1  UNL1       -0.0015
     30 C         139.4893  142.7864  163.2997 C.ar    1  UNL1        0.0005
     31 C         138.8343  141.5746  162.7059 C.ar    1  UNL1       -0.0015
     32 C         138.3414  140.4749  163.5991 C.ar    1  UNL1        0.0111
@<TRIPOS>BOND
     1    26    27    1
     2    27    28   ar
     3    28    29   ar
     4    29    30   ar
     5    30    25    1
     6    25     1    1
     7     1     2   ar
     8     2    11    1
     9    11    12    2
    10    12    13    1
    11    13    14    1
    12    14    15    1
    13    15    16    1
    14    16    18    1
    15    18    19    1
    16    19    20    1
    17    20    21    1
    18    21    22    1
    19    22    23    1
    20    23    24    1
    21    16    17    1
    22     2     3   ar
    23     3     4   ar
    24     4     5   ar
    25     5     6   ar
    26     6     7    1
    27     6     8   ar
    28     8     9   ar
    29     9    10   ar
    30    30    31   ar
    31    31    32   ar
    32    32    27   ar
    33    10     1   ar
    34    17    13    1
    35    10     4   ar
    36    24    19    1
@<TRIPOS>MOLECULE
*****
 32 36 0 0 0
SMALL
GASTEIGER

@<TRIPOS>ATOM
      1 N         140.5222  143.7743  160.1996 N.ar    1  UNL1       -0.3072
      2 C         139.8436  142.4373  160.2433 C.ar    1  UNL1        0.1438
      3 N         139.1432  142.2299  158.9332 N.ar    1  UNL1       -0.2268
      4 C         139.3889  143.4388  158.0797 C.ar    1  UNL1        0.0992
      5 C         138.9467  143.7937  156.6911 C.ar    1  UNL1        0.0273
      6 C         139.3567  145.1032  156.0851 C.ar    1  UNL1        0.0362
      7 BR        138.9145  145.4582  154.6964 Br      1  UNL1       -0.0489
      8 C         140.2090  146.0576  156.8678 C.ar    1  UNL1        0.0083
      9 C         140.6512  145.7027  158.2565 C.ar    1  UNL1        0.0193
     10 C         140.2411  144.3933  158.8624 C.ar    1  UNL1        0.0791
     11 C         139.8622  141.4763  161.3949 C.2     1  UNL1        0.0325
     12 C         138.6165  141.2432  162.1974 C.2     1  UNL1       -0.0219
     13 C         138.6351  140.2823  163.3490 C.3     1  UNL1        0.0395
     14 C         138.7940  138.7938  163.2529 C.3     1  UNL1        0.0231
     15 C         138.7552  138.2327  164.6434 C.3     1  UNL1        0.0725
     16 N         138.5723  139.3743  165.5990 N.3     1  UNL1       -0.2724
     17 C         138.4981  140.6411  164.7991 C.3     1  UNL1        0.0765
     18 C         138.4798  139.2680  167.0924 C.3     1  UNL1        0.0721
     19 C         139.5692  139.8351  167.9536 C.3     1  UNL1        0.0160
     20 C         140.9778  139.8914  167.4410 C.3     1  UNL1        0.0014
     21 C         142.0672  140.4585  168.3022 C.3     1  UNL1        0.0000
     22 C         141.7480  140.9693  169.6760 C.3     1  UNL1        0.0000
     23 C         140.3394  140.9129  170.1885 C.3     1  UNL1        0.0000
     24 C         139.2500  140.3458  169.3273 C.3     1  UNL1        0.0014
     25 C         141.3385  144.3851  161.2998 C.3     1  UNL1        0.1342
     26 CL        139.9593  143.2711  167.0319 Cl      1  UNL1       -0.0822
     27 C         140.3041  143.5496  165.5989 C.ar    1  UNL1        0.0577
     28 C         139.3834  144.3788  164.7535 C.ar    1  UNL1        0.0111
     29 C         139.7282  144.6573  163.3205 C.ar    1  UNL1       -0.0015
     30 C         140.9937  144.1066  162.7328 C.ar    1  UNL1        0.0005
     31 C         141.9144  143.2774  163.5782 C.ar    1  UNL1       -0.0015
     32 C         141.5696  142.9989  165.0112 C.ar    1  UNL1        0.0111
@<TRIPOS>BOND
     1    26    27    1
     2    27    28   ar
     3    28    29   ar
     4    29    30   ar
     5    30    25    1
     6    25     1    1
     7     1     2   ar
     8     2    11    1
     9    11    12    2
    10    12    13    1
    11    13    14    1
    12    14    15    1
    13    15    16    1
    14    16    18    1
    15    18    19    1
    16    19    20    1
    17    20    21    1
    18    21    22    1
    19    22    23    1
    20    23    24    1
    21    16    17    1
    22     2     3   ar
    23     3     4   ar
    24     4     5   ar
    25     5     6   ar
    26     6     7    1
    27     6     8   ar
    28     8     9   ar
    29     9    10   ar
    30    30    31   ar
    31    31    32   ar
    32    32    27   ar
    33    10     1   ar
    34    17    13    1
    35    10     4   ar
    36    24    19    1
@<TRIPOS>MOLECULE
*****
 32 36 0 0 0
SMALL
GASTEIGER

@<TRIPOS>ATOM
      1 N         141.4041  139.6756  163.0614 N.ar    1  UNL1       -0.3072
      2 C         141.3253  138.4775  162.1624 C.ar    1  UNL1        0.1438
      3 N         140.3203  137.5275  162.7433 N.ar    1  UNL1       -0.2268
      4 C         139.7780  138.1384  164.0013 C.ar    1  UNL1        0.0992
      5 C         138.7608  137.6574  164.9932 C.ar    1  UNL1        0.0273
      6 C         138.4135  138.5039  166.1817 C.ar    1  UNL1        0.0362
      7 BR        137.3963  138.0229  167.1737 Br      1  UNL1       -0.0489
      8 C         139.0833  139.8316  166.3783 C.ar    1  UNL1        0.0083
      9 C         140.1005  140.3127  165.3864 C.ar    1  UNL1        0.0193
     10 C         140.4478  139.4661  164.1979 C.ar    1  UNL1        0.0791
     11 C         142.1131  138.2664  160.9035 C.2     1  UNL1        0.0325
     12 C         141.5763  138.7573  159.5917 C.2     1  UNL1       -0.0219
     13 C         142.3642  138.5462  158.3328 C.3     1  UNL1        0.0395
     14 C         142.9116  139.6236  157.4442 C.3     1  UNL1        0.0231
     15 C         143.6286  138.9640  156.3036 C.3     1  UNL1        0.0725
     16 N         143.5244  137.4789  156.4874 N.3     1  UNL1       -0.2724
     17 C         142.7429  137.2207  157.7414 C.3     1  UNL1        0.0765
     18 C         144.1005  136.4353  155.5769 C.3     1  UNL1        0.0721
     19 C         143.4816  135.0703  155.5143 C.3     1  UNL1        0.0160
     20 C         143.6965  134.0973  156.6355 C.3     1  UNL1        0.0014
     21 C         143.0777  132.7323  156.5729 C.3     1  UNL1        0.0000
     22 C         142.2440  132.3403  155.3892 C.3     1  UNL1        0.0000
     23 C         142.0291  133.3134  154.2680 C.3     1  UNL1        0.0000
     24 C         142.6479  134.6783  154.3306 C.3     1  UNL1        0.0014
     25 C         142.2846  140.8731  162.8594 C.3     1  UNL1        0.1342
     26 CL        139.8392  146.2691  161.9091 Cl      1  UNL1       -0.0822
     27 C         140.4506  144.9201  162.1467 C.ar    1  UNL1        0.0577
     28 C         140.3146  143.8424  161.1122 C.ar    1  UNL1        0.0111
     29 C         140.9260  142.4934  161.3498 C.ar    1  UNL1       -0.0015
     30 C         141.6733  142.2220  162.6219 C.ar    1  UNL1        0.0005
     31 C         141.8092  143.2998  163.6563 C.ar    1  UNL1       -0.0015
     32 C         141.1978  144.6488  163.4187 C.ar    1  UNL1        0.0111
@<TRIPOS>BOND
     1    26    27    1
     2    27    28   ar
     3    28    29   ar
     4    29    30   ar
     5    30    25    1
     6    25     1    1
     7     1     2   ar
     8     2    11    1
     9    11    12    2
    10    12    13    1
    11    13    14    1
    12    14    15    1
    13    15    16    1
    14    16    18    1
    15    18    19    1
    16    19    20    1
    17    20    21    1
    18    21    22    1
    19    22    23    1
    20    23    24    1
    21    16    17    1
    22     2     3   ar
    23     3     4   ar
    24     4     5   ar
    25     5     6   ar
    26     6     7    1
    27     6     8   ar
    28     8     9   ar
    29     9    10   ar
    30    30    31   ar
    31    31    32   ar
    32    32    27   ar
    33    10     1   ar
    34    17    13    1
    35    10     4   ar
    36    24    19    1
@<TRIPOS>MOLECULE
*****
 32 36 0 0 0
SMALL
GASTEIGER

@<TRIPOS>ATOM
      1 N         140.6866  138.5328  158.4226 N.ar    1  UNL1       -0.3072
      2 C         142.0381  138.6025  159.0697 C.ar    1  UNL1        0.1438
      3 N         142.9829  137.7636  158.2612 N.ar    1  UNL1       -0.2268
      4 C         142.2154  137.1754  157.1145 C.ar    1  UNL1        0.0992
      5 C         142.6254  136.2684  155.9924 C.ar    1  UNL1        0.0273
      6 C         141.6163  135.8367  154.9700 C.ar    1  UNL1        0.0362
      7 BR        142.0263  134.9297  153.8478 Br      1  UNL1       -0.0489
      8 C         140.1971  136.3121  155.0697 C.ar    1  UNL1        0.0083
      9 C         139.7871  137.2192  156.1918 C.ar    1  UNL1        0.0193
     10 C         140.7962  137.6508  157.2142 C.ar    1  UNL1        0.0791
     11 C         142.3840  139.3754  160.3078 C.2     1  UNL1        0.0325
     12 C         142.7490  138.6486  161.5681 C.2     1  UNL1       -0.0219
     13 C         143.0949  139.4215  162.8063 C.3     1  UNL1        0.0395
     14 C         144.3430  139.2651  163.6234 C.3     1  UNL1        0.0231
     15 C         144.2729  140.2334  164.7668 C.3     1  UNL1        0.0725
     16 N         142.9815  140.9883  164.6564 N.3     1  UNL1       -0.2724
     17 C         142.2533  140.4866  163.4447 C.3     1  UNL1        0.0765
     18 C         142.5022  142.0573  165.5931 C.3     1  UNL1        0.0721
     19 C         141.4074  142.9909  165.1686 C.3     1  UNL1        0.0160
     20 C         141.6907  144.0746  164.1711 C.3     1  UNL1        0.0014
     21 C         140.5960  145.0081  163.7466 C.3     1  UNL1        0.0000
     22 C         139.2180  144.8579  164.3197 C.3     1  UNL1        0.0000
     23 C         138.9347  143.7742  165.3173 C.3     1  UNL1        0.0000
     24 C         140.0294  142.8406  165.7418 C.3     1  UNL1        0.0014
     25 C         139.4438  139.2237  158.9000 C.3     1  UNL1        0.1342
     26 CL        138.3315  139.6745  164.7787 Cl      1  UNL1       -0.0822
     27 C         138.6096  139.5618  163.3090 C.ar    1  UNL1        0.0577
     28 C         138.7459  140.8007  162.4744 C.ar    1  UNL1        0.0111
     29 C         139.0240  140.6879  161.0047 C.ar    1  UNL1       -0.0015
     30 C         139.1657  139.3364  160.3696 C.ar    1  UNL1        0.0005
     31 C         139.0293  138.0975  161.2043 C.ar    1  UNL1       -0.0015
     32 C         138.7513  138.2103  162.6740 C.ar    1  UNL1        0.0111
@<TRIPOS>BOND
     1    26    27    1
     2    27    28   ar
     3    28    29   ar
     4    29    30   ar
     5    30    25    1
     6    25     1    1
     7     1     2   ar
     8     2    11    1
     9    11    12    2
    10    12    13    1
    11    13    14    1
    12    14    15    1
    13    15    16    1
    14    16    18    1
    15    18    19    1
    16    19    20    1
    17    20    21    1
    18    21    22    1
    19    22    23    1
    20    23    24    1
    21    16    17    1
    22     2     3   ar
    23     3     4   ar
    24     4     5   ar
    25     5     6   ar
    26     6     7    1
    27     6     8   ar
    28     8     9   ar
    29     9    10   ar
    30    30    31   ar
    31    31    32   ar
    32    32    27   ar
    33    10     1   ar
    34    17    13    1
    35    10     4   ar
    36    24    19    1
@<TRIPOS>MOLECULE
*****
 32 36 0 0 0
SMALL
GASTEIGER

@<TRIPOS>ATOM
      1 N         140.1502  139.9460  164.6008 N.ar    1  UNL1       -0.3072
      2 C         141.0753  138.9521  163.9635 C.ar    1  UNL1        0.1438
      3 N         142.1000  138.5524  164.9835 N.ar    1  UNL1       -0.2268
      4 C         141.8081  139.2994  166.2511 C.ar    1  UNL1        0.0992
      5 C         142.4839  139.3065  167.5902 C.ar    1  UNL1        0.0273
      6 C         141.9546  140.1750  168.6927 C.ar    1  UNL1        0.0362
      7 BR        142.6305  140.1821  170.0319 Br      1  UNL1       -0.0489
      8 C         140.7496  141.0363  168.4562 C.ar    1  UNL1        0.0083
      9 C         140.0738  141.0291  167.1171 C.ar    1  UNL1        0.0193
     10 C         140.6030  140.1607  166.0146 C.ar    1  UNL1        0.0791
     11 C         140.9907  138.4465  162.5538 C.2     1  UNL1        0.0325
     12 C         141.7554  139.1355  161.4628 C.2     1  UNL1       -0.0219
     13 C         141.6708  138.6300  160.0531 C.3     1  UNL1        0.0395
     14 C         140.4839  138.7485  159.1436 C.3     1  UNL1        0.0231
     15 C         140.8377  138.1089  157.8338 C.3     1  UNL1        0.0725
     16 N         142.2434  137.5951  157.9336 N.3     1  UNL1       -0.2724
     17 C         142.7584  137.9171  159.3052 C.3     1  UNL1        0.0765
     18 C         143.0013  136.8841  156.8519 C.3     1  UNL1        0.0721
     19 C         142.7196  135.4391  156.5643 C.3     1  UNL1        0.0160
     20 C         143.4214  134.3682  157.3456 C.3     1  UNL1        0.0014
     21 C         143.1397  132.9232  157.0580 C.3     1  UNL1        0.0000
     22 C         142.1562  132.5492  155.9890 C.3     1  UNL1        0.0000
     23 C         141.4543  133.6201  155.2077 C.3     1  UNL1        0.0000
     24 C         141.7360  135.0651  155.4953 C.3     1  UNL1        0.0014
     25 C         138.9779  140.6090  163.9402 C.3     1  UNL1        0.1342
     26 CL        139.4662  146.2315  161.9033 Cl      1  UNL1       -0.0822
     27 C         139.3442  144.8258  162.4125 C.ar    1  UNL1        0.0577
     28 C         138.1292  144.4123  163.1889 C.ar    1  UNL1        0.0111
     29 C         138.0071  143.0067  163.6981 C.ar    1  UNL1       -0.0015
     30 C         139.1000  142.0145  163.4310 C.ar    1  UNL1        0.0005
     31 C         140.3150  142.4281  162.6545 C.ar    1  UNL1       -0.0015
     32 C         140.4370  143.8338  162.1453 C.ar    1  UNL1        0.0111
@<TRIPOS>BOND
     1    26    27    1
     2    27    28   ar
     3    28    29   ar
     4    29    30   ar
     5    30    25    1
     6    25     1    1
     7     1     2   ar
     8     2    11    1
     9    11    12    2
    10    12    13    1
    11    13    14    1
    12    14    15    1
    13    15    16    1
    14    16    18    1
    15    18    19    1
    16    19    20    1
    17    20    21    1
    18    21    22    1
    19    22    23    1
    20    23    24    1
    21    16    17    1
    22     2     3   ar
    23     3     4   ar
    24     4     5   ar
    25     5     6   ar
    26     6     7    1
    27     6     8   ar
    28     8     9   ar
    29     9    10   ar
    30    30    31   ar
    31    31    32   ar
    32    32    27   ar
    33    10     1   ar
    34    17    13    1
    35    10     4   ar
    36    24    19    1
@<TRIPOS>MOLECULE
*****
 32 36 0 0 0
SMALL
GASTEIGER

@<TRIPOS>ATOM
      1 N         139.2761  142.2254  159.8462 N.ar    1  UNL1       -0.3072
      2 C         138.9972  140.8776  160.4424 C.ar    1  UNL1        0.1438
      3 N         138.2060  140.0844  159.4450 N.ar    1  UNL1       -0.2268
      4 C         137.9959  140.9420  158.2324 C.ar    1  UNL1        0.0992
      5 C         137.2878  140.6890  156.9346 C.ar    1  UNL1        0.0273
      6 C         137.2411  141.7592  155.8847 C.ar    1  UNL1        0.0362
      7 BR        136.5330  141.5062  154.5867 Br      1  UNL1       -0.0489
      8 C         137.9025  143.0825  156.1326 C.ar    1  UNL1        0.0083
      9 C         138.6106  143.3355  157.4305 C.ar    1  UNL1        0.0193
     10 C         138.6573  142.2653  158.4804 C.ar    1  UNL1        0.0791
     11 C         139.4330  140.4057  161.7979 C.2     1  UNL1        0.0325
     12 C         138.5581  140.6452  162.9925 C.2     1  UNL1       -0.0219
     13 C         138.9939  140.1734  164.3480 C.3     1  UNL1        0.0395
     14 C         138.1901  139.3223  165.2859 C.3     1  UNL1        0.0231
     15 C         139.0095  139.0927  166.5212 C.3     1  UNL1        0.0725
     16 N         140.3197  139.8019  166.3468 N.3     1  UNL1       -0.2724
     17 C         140.3101  140.4699  165.0038 C.3     1  UNL1        0.0765
     18 C         141.4424  139.8371  167.3410 C.3     1  UNL1        0.0721
     19 C         141.5964  141.0149  168.2570 C.3     1  UNL1        0.0160
     20 C         140.4768  142.0022  168.4040 C.3     1  UNL1        0.0014
     21 C         140.6308  143.1800  169.3201 C.3     1  UNL1        0.0000
     22 C         141.9045  143.3704  170.0891 C.3     1  UNL1        0.0000
     23 C         143.0241  142.3831  169.9422 C.3     1  UNL1        0.0000
     24 C         142.8701  141.2053  169.0261 C.3     1  UNL1        0.0014
     25 C         140.0398  143.3382  160.5009 C.3     1  UNL1        0.1342
     26 CL        138.5503  145.1573  166.0210 Cl      1  UNL1       -0.0822
     27 C         138.9227  144.7025  164.6410 C.ar    1  UNL1        0.0577
     28 C         140.3657  144.5153  164.2769 C.ar    1  UNL1        0.0111
     29 C         140.7381  144.0605  162.8969 C.ar    1  UNL1       -0.0015
     30 C         139.6674  143.7929  161.8809 C.ar    1  UNL1        0.0005
     31 C         138.2244  143.9802  162.2450 C.ar    1  UNL1       -0.0015
     32 C         137.8521  144.4350  163.6251 C.ar    1  UNL1        0.0111
@<TRIPOS>BOND
     1    26    27    1
     2    27    28   ar
     3    28    29   ar
     4    29    30   ar
     5    30    25    1
     6    25     1    1
     7     1     2   ar
     8     2    11    1
     9    11    12    2
    10    12    13    1
    11    13    14    1
    12    14    15    1
    13    15    16    1
    14    16    18    1
    15    18    19    1
    16    19    20    1
    17    20    21    1
    18    21    22    1
    19    22    23    1
    20    23    24    1
    21    16    17    1
    22     2     3   ar
    23     3     4   ar
    24     4     5   ar
    25     5     6   ar
    26     6     7    1
    27     6     8   ar
    28     8     9   ar
    29     9    10   ar
    30    30    31   ar
    31    31    32   ar
    32    32    27   ar
    33    10     1   ar
    34    17    13    1
    35    10     4   ar
    36    24    19    1
