@<TRIPOS>MOLECULE
*****
 36 40 0 0 0
SMALL
GASTEIGER

@<TRIPOS>ATOM
      1 C         138.7000  139.0106  161.3345 C.2     1  UNL1        0.3045
      2 O         137.3642  139.4344  160.7996 O.2     1  UNL1       -0.2647
      3 N         139.8148  138.6759  160.3884 N.am    1  UNL1       -0.2720
      4 C         141.1506  138.2521  160.9233 C.3     1  UNL1        0.0976
      5 C         142.2654  137.9173  159.9773 C.3     1  UNL1        0.0651
      6 C         142.0445  138.0063  158.4963 C.3     1  UNL1        0.1693
      7 C         140.7087  138.4301  157.9614 C.3     1  UNL1        0.0651
      8 C         139.5938  138.7649  158.9075 C.3     1  UNL1        0.0976
      9 C         139.3876  139.5235  165.1199 C.ar    1  UNL1        0.2501
     10 N         139.1340  138.0459  165.0690 N.ar    1  UNL1       -0.1068
     11 N         138.8456  137.6739  163.6447 N.ar    1  UNL1       -0.1021
     12 C         138.9209  138.9216  162.8155 C.ar    1  UNL1        0.3042
     13 O         139.2558  140.0646  163.7272 O.2     1  UNL1       -0.4122
     14 C         140.3708  141.9129  168.8042 C.ar    1  UNL1        0.1387
     15 C         139.6596  140.5983  168.9305 C.ar    1  UNL1        0.0371
     16 C         139.3319  139.8018  167.7024 C.ar    1  UNL1        0.0078
     17 C         139.7153  140.3199  166.3480 C.ar    1  UNL1        0.0553
     18 C         140.4265  141.6345  166.2217 C.ar    1  UNL1        0.0078
     19 C         140.7543  142.4310  167.4498 C.ar    1  UNL1        0.0371
     20 C         140.4132  144.1815  170.0697 C.3     1  UNL1        0.2525
     21 O         140.6986  142.7094  170.0323 O.3     1  UNL1       -0.4714
     22 O         143.1593  137.6716  157.5502 O.3     1  UNL1       -0.4791
     23 C         143.0800  136.4347  156.7053 C.ar    1  UNL1        0.1384
     24 C         142.8015  136.5470  155.2357 C.ar    1  UNL1        0.0366
     25 C         142.7222  135.3101  154.3908 C.ar    1  UNL1        0.0002
     26 C         142.9214  133.9610  155.0155 C.ar    1  UNL1       -0.0059
     27 C         143.2000  133.8488  156.4851 C.ar    1  UNL1        0.0002
     28 C         143.2792  135.0856  157.3300 C.ar    1  UNL1        0.0366
     29 C         142.8421  132.7241  154.1705 C.3     1  UNL1        0.0992
     30 N         143.0418  131.3751  154.7950 N.3     1  UNL1       -0.2665
     31 C         144.4291  130.8621  155.0445 C.3     1  UNL1        0.0899
     32 C         144.6289  129.5130  155.6690 C.3     1  UNL1        0.0897
     33 N         143.4414  128.6769  156.0440 N.3     1  UNL1       -0.2691
     34 C         143.6411  127.3277  156.6685 C.3     1  UNL1        0.0897
     35 C         142.0541  129.1899  155.7945 C.3     1  UNL1        0.0897
     36 C         141.8543  130.5390  155.1700 C.3     1  UNL1        0.0899
@<TRIPOS>BOND
     1    20    21    1
     2    21    14    1
     3    14    15   ar
     4    15    16   ar
     5    16    17   ar
     6    17     9    1
     7     9    10   ar
     8    10    11   ar
     9    11    12   ar
    10    12     1    1
    11     1     2    2
    12     1     3   am
    13     3     4    1
    14     4     5    1
    15     5     6    1
    16     6    22    1
    17    22    23    1
    18    23    24   ar
    19    24    25   ar
    20    25    26   ar
    21    26    29    1
    22    29    30    1
    23    30    31    1
    24    31    32    1
    25    32    33    1
    26    33    34    1
    27    33    35    1
    28    35    36    1
    29    26    27   ar
    30    27    28   ar
    31     6     7    1
    32     7     8    1
    33    12    13   ar
    34    17    18   ar
    35    18    19   ar
    36    19    14   ar
    37    13     9   ar
    38     8     3    1
    39    28    23   ar
    40    36    30    1
@<TRIPOS>MOLECULE
*****
 36 40 0 0 0
SMALL
GASTEIGER

@<TRIPOS>ATOM
      1 C         142.8074  138.6095  157.7985 C.2     1  UNL1        0.3045
      2 O         143.9744  139.5341  157.6164 O.2     1  UNL1       -0.2647
      3 N         141.6643  139.0098  158.6835 N.am    1  UNL1       -0.2720
      4 C         140.4973  138.0852  158.8656 C.3     1  UNL1        0.0976
      5 C         139.3543  138.4855  159.7505 C.3     1  UNL1        0.0651
      6 C         139.3782  139.8104  160.4534 C.3     1  UNL1        0.1693
      7 C         140.5452  140.7350  160.2713 C.3     1  UNL1        0.0651
      8 C         141.6883  140.3347  159.3863 C.3     1  UNL1        0.0976
      9 C         143.0112  134.9132  156.6319 C.ar    1  UNL1        0.2501
     10 N         142.4821  135.5784  155.3961 N.ar    1  UNL1       -0.1068
     11 N         142.3413  137.0441  155.6826 N.ar    1  UNL1       -0.1021
     12 C         142.7835  137.2846  157.0956 C.ar    1  UNL1        0.3042
     13 O         143.1975  135.9677  157.6823 O.2     1  UNL1       -0.4122
     14 C         143.8863  130.5245  157.1054 C.ar    1  UNL1        0.1387
     15 C         142.7065  130.9708  156.2936 C.ar    1  UNL1        0.0371
     16 C         142.4148  132.4336  156.1358 C.ar    1  UNL1        0.0078
     17 C         143.3029  133.4503  156.7897 C.ar    1  UNL1        0.0553
     18 C         144.4827  133.0041  157.6015 C.ar    1  UNL1        0.0078
     19 C         144.7744  131.5412  157.7593 C.ar    1  UNL1        0.0371
     20 C         144.8290  128.5577  158.5170 C.3     1  UNL1        0.2525
     21 O         144.1780  129.0617  157.2632 O.3     1  UNL1       -0.4714
     22 O         138.2351  140.2107  161.3384 O.3     1  UNL1       -0.4791
     23 C         138.3020  139.9498  162.8140 C.ar    1  UNL1        0.1384
     24 C         138.0298  141.0602  163.7850 C.ar    1  UNL1        0.0366
     25 C         138.0966  140.7993  165.2606 C.ar    1  UNL1        0.0002
     26 C         138.4358  139.4280  165.7652 C.ar    1  UNL1       -0.0059
     27 C         138.7080  138.3176  164.7942 C.ar    1  UNL1        0.0002
     28 C         138.6412  138.5785  163.3186 C.ar    1  UNL1        0.0366
     29 C         138.5026  139.1672  167.2409 C.3     1  UNL1        0.0992
     30 N         139.4964  139.9044  168.0886 N.3     1  UNL1       -0.2665
     31 C         140.8843  140.1498  167.5752 C.3     1  UNL1        0.0899
     32 C         141.8782  140.8870  168.4229 C.3     1  UNL1        0.0897
     33 N         141.4842  141.3790  169.7840 N.3     1  UNL1       -0.2691
     34 C         142.4781  142.1163  170.6318 C.3     1  UNL1        0.0897
     35 C         140.0963  141.1337  170.2974 C.3     1  UNL1        0.0897
     36 C         139.1024  140.3964  169.4497 C.3     1  UNL1        0.0899
@<TRIPOS>BOND
     1    20    21    1
     2    21    14    1
     3    14    15   ar
     4    15    16   ar
     5    16    17   ar
     6    17     9    1
     7     9    10   ar
     8    10    11   ar
     9    11    12   ar
    10    12     1    1
    11     1     2    2
    12     1     3   am
    13     3     4    1
    14     4     5    1
    15     5     6    1
    16     6    22    1
    17    22    23    1
    18    23    24   ar
    19    24    25   ar
    20    25    26   ar
    21    26    29    1
    22    29    30    1
    23    30    31    1
    24    31    32    1
    25    32    33    1
    26    33    34    1
    27    33    35    1
    28    35    36    1
    29    26    27   ar
    30    27    28   ar
    31     6     7    1
    32     7     8    1
    33    12    13   ar
    34    17    18   ar
    35    18    19   ar
    36    19    14   ar
    37    13     9   ar
    38     8     3    1
    39    28    23   ar
    40    36    30    1
@<TRIPOS>MOLECULE
*****
 36 40 0 0 0
SMALL
GASTEIGER

@<TRIPOS>ATOM
      1 C         138.1815  143.1677  155.1637 C.2     1  UNL1        0.3045
      2 O         138.3124  143.7432  153.7847 O.2     1  UNL1       -0.2647
      3 N         138.9894  143.7351  156.2930 N.am    1  UNL1       -0.2720
      4 C         138.8585  143.1595  157.6720 C.3     1  UNL1        0.0976
      5 C         139.6664  143.7268  158.8013 C.3     1  UNL1        0.0651
      6 C         140.6052  144.8698  158.5516 C.3     1  UNL1        0.1693
      7 C         140.7361  145.4453  157.1727 C.3     1  UNL1        0.0651
      8 C         139.9282  144.8779  156.0433 C.3     1  UNL1        0.0976
      9 C         135.2457  140.7517  155.9442 C.ar    1  UNL1        0.2501
     10 N         136.3503  139.7802  155.6507 N.ar    1  UNL1       -0.1068
     11 N         137.5845  140.5670  155.3226 N.ar    1  UNL1       -0.1021
     12 C         137.2427  142.0247  155.4133 C.ar    1  UNL1        0.3042
     13 O         135.7972  142.1388  155.7975 O.2     1  UNL1       -0.4122
     14 C         131.0193  139.6908  157.0677 C.ar    1  UNL1        0.1387
     15 C         132.1673  138.9357  157.6693 C.ar    1  UNL1        0.0371
     16 C         133.5761  139.2894  157.2948 C.ar    1  UNL1        0.0078
     17 C         133.8369  140.3980  156.3187 C.ar    1  UNL1        0.0553
     18 C         132.6889  141.1531  155.7171 C.ar    1  UNL1        0.0078
     19 C         131.2801  140.7994  156.0916 C.ar    1  UNL1        0.0371
     20 C         129.1351  137.9198  157.3195 C.3     1  UNL1        0.2525
     21 O         129.6105  139.3371  157.4422 O.3     1  UNL1       -0.4714
     22 O         141.4131  145.4372  159.6810 O.3     1  UNL1       -0.4791
     23 C         141.1504  144.9915  161.0889 C.ar    1  UNL1        0.1384
     24 C         140.0290  145.6057  161.8732 C.ar    1  UNL1        0.0366
     25 C         139.7664  145.1600  163.2811 C.ar    1  UNL1        0.0002
     26 C         140.6252  144.1001  163.9048 C.ar    1  UNL1       -0.0059
     27 C         141.7467  143.4859  163.1206 C.ar    1  UNL1        0.0002
     28 C         142.0093  143.9316  161.7126 C.ar    1  UNL1        0.0366
     29 C         140.3625  143.6544  165.3129 C.3     1  UNL1        0.0992
     30 N         139.7631  142.3042  165.5727 N.3     1  UNL1       -0.2665
     31 C         140.1255  141.5497  166.8175 C.3     1  UNL1        0.0899
     32 C         139.5260  140.1995  167.0774 C.3     1  UNL1        0.0897
     33 N         138.5641  139.6038  166.0926 N.3     1  UNL1       -0.2691
     34 C         137.9646  138.2536  166.3525 C.3     1  UNL1        0.0897
     35 C         138.2017  140.3583  164.8479 C.3     1  UNL1        0.0897
     36 C         138.8012  141.7085  164.5879 C.3     1  UNL1        0.0899
@<TRIPOS>BOND
     1    20    21    1
     2    21    14    1
     3    14    15   ar
     4    15    16   ar
     5    16    17   ar
     6    17     9    1
     7     9    10   ar
     8    10    11   ar
     9    11    12   ar
    10    12     1    1
    11     1     2    2
    12     1     3   am
    13     3     4    1
    14     4     5    1
    15     5     6    1
    16     6    22    1
    17    22    23    1
    18    23    24   ar
    19    24    25   ar
    20    25    26   ar
    21    26    29    1
    22    29    30    1
    23    30    31    1
    24    31    32    1
    25    32    33    1
    26    33    34    1
    27    33    35    1
    28    35    36    1
    29    26    27   ar
    30    27    28   ar
    31     6     7    1
    32     7     8    1
    33    12    13   ar
    34    17    18   ar
    35    18    19   ar
    36    19    14   ar
    37    13     9   ar
    38     8     3    1
    39    28    23   ar
    40    36    30    1
@<TRIPOS>MOLECULE
*****
 36 40 0 0 0
SMALL
GASTEIGER

@<TRIPOS>ATOM
      1 C         138.5644  139.8748  159.8984 C.2     1  UNL1        0.3045
      2 O         137.2343  139.8800  159.2050 O.2     1  UNL1       -0.2647
      3 N         139.7519  139.2392  159.2382 N.am    1  UNL1       -0.2720
      4 C         141.0820  139.2341  159.9315 C.3     1  UNL1        0.0976
      5 C         142.2695  138.5985  159.2714 C.3     1  UNL1        0.0651
      6 C         142.1269  137.9680  157.9178 C.3     1  UNL1        0.1693
      7 C         140.7967  137.9731  157.2245 C.3     1  UNL1        0.0651
      8 C         139.6092  138.6088  157.8847 C.3     1  UNL1        0.0976
      9 C         138.9349  140.7953  163.6508 C.ar    1  UNL1        0.2501
     10 N         138.9181  142.1557  163.0190 N.ar    1  UNL1       -0.1068
     11 N         138.7773  141.9764  161.5364 N.ar    1  UNL1       -0.1021
     12 C         138.7070  140.5053  161.2519 C.ar    1  UNL1        0.3042
     13 O         138.8044  139.7754  162.5588 O.2     1  UNL1       -0.4122
     14 C         139.3106  139.9268  168.0502 C.ar    1  UNL1        0.1387
     15 C         138.3306  139.1575  167.2149 C.ar    1  UNL1        0.0371
     16 C         138.2054  139.4471  165.7484 C.ar    1  UNL1        0.0078
     17 C         139.0601  140.5058  165.1173 C.ar    1  UNL1        0.0553
     18 C         140.0401  141.2751  165.9526 C.ar    1  UNL1        0.0078
     19 C         140.1654  140.9856  167.4191 C.ar    1  UNL1        0.0371
     20 C         140.6501  140.0933  170.2701 C.3     1  UNL1        0.2525
     21 O         139.4359  139.6373  169.5167 O.3     1  UNL1       -0.4714
     22 O         143.3144  137.3324  157.2576 O.3     1  UNL1       -0.4791
     23 C         143.1534  136.0468  156.5017 C.ar    1  UNL1        0.1384
     24 C         143.2051  134.7368  157.2304 C.ar    1  UNL1        0.0366
     25 C         143.0442  133.4512  156.4745 C.ar    1  UNL1        0.0002
     26 C         142.8314  133.4758  154.9899 C.ar    1  UNL1       -0.0059
     27 C         142.7796  134.7858  154.2611 C.ar    1  UNL1        0.0002
     28 C         142.9406  136.0714  155.0170 C.ar    1  UNL1        0.0366
     29 C         142.6704  132.1901  154.2339 C.3     1  UNL1        0.0992
     30 N         143.0393  130.8882  154.8811 N.3     1  UNL1       -0.2665
     31 C         141.9677  129.9927  155.4286 C.3     1  UNL1        0.0899
     32 C         142.3366  128.6908  156.0759 C.3     1  UNL1        0.0897
     33 N         143.7770  128.2844  156.1756 N.3     1  UNL1       -0.2691
     34 C         144.1459  126.9824  156.8228 C.3     1  UNL1        0.0897
     35 C         144.8486  129.1799  155.6281 C.3     1  UNL1        0.0897
     36 C         144.4797  130.4819  154.9808 C.3     1  UNL1        0.0899
@<TRIPOS>BOND
     1    20    21    1
     2    21    14    1
     3    14    15   ar
     4    15    16   ar
     5    16    17   ar
     6    17     9    1
     7     9    10   ar
     8    10    11   ar
     9    11    12   ar
    10    12     1    1
    11     1     2    2
    12     1     3   am
    13     3     4    1
    14     4     5    1
    15     5     6    1
    16     6    22    1
    17    22    23    1
    18    23    24   ar
    19    24    25   ar
    20    25    26   ar
    21    26    29    1
    22    29    30    1
    23    30    31    1
    24    31    32    1
    25    32    33    1
    26    33    34    1
    27    33    35    1
    28    35    36    1
    29    26    27   ar
    30    27    28   ar
    31     6     7    1
    32     7     8    1
    33    12    13   ar
    34    17    18   ar
    35    18    19   ar
    36    19    14   ar
    37    13     9   ar
    38     8     3    1
    39    28    23   ar
    40    36    30    1
@<TRIPOS>MOLECULE
*****
 36 40 0 0 0
SMALL
GASTEIGER

@<TRIPOS>ATOM
      1 C         139.6256  143.9498  160.7141 C.2     1  UNL1        0.3045
      2 O         140.3843  145.1789  160.3094 O.2     1  UNL1       -0.2647
      3 N         139.2557  142.9237  159.6845 N.am    1  UNL1       -0.2720
      4 C         138.4970  141.6947  160.0893 C.3     1  UNL1        0.0976
      5 C         138.1270  140.6686  159.0597 C.3     1  UNL1        0.0651
      6 C         138.5158  140.8715  157.6252 C.3     1  UNL1        0.1693
      7 C         139.2745  142.1005  157.2204 C.3     1  UNL1        0.0651
      8 C         139.6444  143.1267  158.2501 C.3     1  UNL1        0.0976
      9 C         139.1645  142.9041  164.4235 C.ar    1  UNL1        0.2501
     10 N         138.1130  143.9653  164.2886 N.ar    1  UNL1       -0.1068
     11 N         138.1577  144.4862  162.8827 N.ar    1  UNL1       -0.1021
     12 C         139.2369  143.7470  162.1486 C.ar    1  UNL1        0.3042
     13 O         139.8591  142.7692  163.1009 O.2     1  UNL1       -0.4122
     14 C         140.0753  140.5404  168.1428 C.ar    1  UNL1        0.1387
     15 C         139.3302  139.8988  167.0101 C.ar    1  UNL1        0.0371
     16 C         139.0266  140.6867  165.7703 C.ar    1  UNL1        0.0078
     17 C         139.4681  142.1162  165.6633 C.ar    1  UNL1        0.0553
     18 C         140.2131  142.7578  166.7960 C.ar    1  UNL1        0.0078
     19 C         140.5167  141.9700  168.0358 C.ar    1  UNL1        0.0371
     20 C         141.8027  139.5080  169.7860 C.3     1  UNL1        0.2525
     21 O         140.3788  139.7525  169.3826 O.3     1  UNL1       -0.4714
     22 O         138.1458  139.8454  156.5955 O.3     1  UNL1       -0.4791
     23 C         139.1880  138.9067  156.0639 C.ar    1  UNL1        0.1384
     24 C         139.6209  139.0006  154.6308 C.ar    1  UNL1        0.0366
     25 C         140.6632  138.0619  154.0992 C.ar    1  UNL1        0.0002
     26 C         141.2725  137.0294  155.0006 C.ar    1  UNL1       -0.0059
     27 C         140.8396  136.9355  156.4337 C.ar    1  UNL1        0.0002
     28 C         139.7974  137.8742  156.9654 C.ar    1  UNL1        0.0366
     29 C         142.3148  136.0907  154.4689 C.3     1  UNL1        0.0992
     30 N         142.5476  134.7700  155.1408 N.3     1  UNL1       -0.2665
     31 C         143.7201  134.5922  156.0593 C.3     1  UNL1        0.0899
     32 C         143.9530  133.2715  156.7312 C.3     1  UNL1        0.0897
     33 N         143.0133  132.1286  156.4847 N.3     1  UNL1       -0.2691
     34 C         143.2461  130.8078  157.1566 C.3     1  UNL1        0.0897
     35 C         141.8408  132.3064  155.5662 C.3     1  UNL1        0.0897
     36 C         141.6079  133.6271  154.8943 C.3     1  UNL1        0.0899
@<TRIPOS>BOND
     1    20    21    1
     2    21    14    1
     3    14    15   ar
     4    15    16   ar
     5    16    17   ar
     6    17     9    1
     7     9    10   ar
     8    10    11   ar
     9    11    12   ar
    10    12     1    1
    11     1     2    2
    12     1     3   am
    13     3     4    1
    14     4     5    1
    15     5     6    1
    16     6    22    1
    17    22    23    1
    18    23    24   ar
    19    24    25   ar
    20    25    26   ar
    21    26    29    1
    22    29    30    1
    23    30    31    1
    24    31    32    1
    25    32    33    1
    26    33    34    1
    27    33    35    1
    28    35    36    1
    29    26    27   ar
    30    27    28   ar
    31     6     7    1
    32     7     8    1
    33    12    13   ar
    34    17    18   ar
    35    18    19   ar
    36    19    14   ar
    37    13     9   ar
    38     8     3    1
    39    28    23   ar
    40    36    30    1
@<TRIPOS>MOLECULE
*****
 36 40 0 0 0
SMALL
GASTEIGER

@<TRIPOS>ATOM
      1 C         143.4966  143.1472  160.3668 C.2     1  UNL1        0.3045
      2 O         144.7446  142.4961  159.8487 O.2     1  UNL1       -0.2647
      3 N         142.3689  143.4601  159.4285 N.am    1  UNL1       -0.2720
      4 C         141.1208  144.1112  159.9466 C.3     1  UNL1        0.0976
      5 C         139.9932  144.4240  159.0084 C.3     1  UNL1        0.0651
      6 C         140.1135  144.0857  157.5520 C.3     1  UNL1        0.1693
      7 C         141.3615  143.4346  157.0339 C.3     1  UNL1        0.0651
      8 C         142.4892  143.1218  157.9721 C.3     1  UNL1        0.0976
      9 C         142.8407  143.3543  164.1868 C.ar    1  UNL1        0.2501
     10 N         143.5417  144.6576  163.9419 N.ar    1  UNL1       -0.1068
     11 N         143.8728  144.7387  162.4812 N.ar    1  UNL1       -0.1021
     12 C         143.3763  143.4855  161.8231 C.ar    1  UNL1        0.3042
     13 O         142.7385  142.6299  162.8773 O.2     1  UNL1       -0.4122
     14 C         141.3125  141.8771  168.1532 C.ar    1  UNL1        0.1387
     15 C         140.3491  142.3710  167.1150 C.ar    1  UNL1        0.0371
     16 C         140.8585  142.8634  165.7929 C.ar    1  UNL1        0.0078
     17 C         142.3313  142.8619  165.5089 C.ar    1  UNL1        0.0553
     18 C         143.2948  142.3680  166.5470 C.ar    1  UNL1        0.0078
     19 C         142.7854  141.8756  167.8692 C.ar    1  UNL1        0.0371
     20 C         139.4776  140.6873  169.5558 C.3     1  UNL1        0.2525
     21 O         140.8032  141.3847  169.4753 O.3     1  UNL1       -0.4714
     22 O         138.9857  144.3986  156.6137 O.3     1  UNL1       -0.4791
     23 C         138.0267  143.3191  156.2075 C.ar    1  UNL1        0.1384
     24 C         137.7064  142.2038  157.1580 C.ar    1  UNL1        0.0366
     25 C         136.7474  141.1244  156.7517 C.ar    1  UNL1        0.0002
     26 C         136.1086  141.1603  155.3950 C.ar    1  UNL1       -0.0059
     27 C         136.4288  142.2756  154.4445 C.ar    1  UNL1        0.0002
     28 C         137.3879  143.3550  154.8507 C.ar    1  UNL1        0.0366
     29 C         135.1495  140.0808  154.9888 C.3     1  UNL1        0.0992
     30 N         133.7853  140.0172  155.6090 N.3     1  UNL1       -0.2665
     31 C         133.4264  138.8780  156.5165 C.3     1  UNL1        0.0899
     32 C         132.0621  138.8144  157.1368 C.3     1  UNL1        0.0897
     33 N         131.0568  139.8899  156.8496 N.3     1  UNL1       -0.2691
     34 C         129.6924  139.8263  157.4698 C.3     1  UNL1        0.0897
     35 C         131.4157  141.0290  155.9421 C.3     1  UNL1        0.0897
     36 C         132.7799  141.0927  155.3218 C.3     1  UNL1        0.0899
@<TRIPOS>BOND
     1    20    21    1
     2    21    14    1
     3    14    15   ar
     4    15    16   ar
     5    16    17   ar
     6    17     9    1
     7     9    10   ar
     8    10    11   ar
     9    11    12   ar
    10    12     1    1
    11     1     2    2
    12     1     3   am
    13     3     4    1
    14     4     5    1
    15     5     6    1
    16     6    22    1
    17    22    23    1
    18    23    24   ar
    19    24    25   ar
    20    25    26   ar
    21    26    29    1
    22    29    30    1
    23    30    31    1
    24    31    32    1
    25    32    33    1
    26    33    34    1
    27    33    35    1
    28    35    36    1
    29    26    27   ar
    30    27    28   ar
    31     6     7    1
    32     7     8    1
    33    12    13   ar
    34    17    18   ar
    35    18    19   ar
    36    19    14   ar
    37    13     9   ar
    38     8     3    1
    39    28    23   ar
    40    36    30    1
@<TRIPOS>MOLECULE
*****
 36 40 0 0 0
SMALL
GASTEIGER

@<TRIPOS>ATOM
      1 C         142.5462  138.0190  157.0240 C.2     1  UNL1        0.3045
      2 O         143.9276  138.5721  156.8348 O.2     1  UNL1       -0.2647
      3 N         141.5753  138.7190  157.9280 N.am    1  UNL1       -0.2720
      4 C         140.1939  138.1659  158.1172 C.3     1  UNL1        0.0976
      5 C         139.2230  138.8659  159.0212 C.3     1  UNL1        0.0651
      6 C         139.6335  140.1191  159.7361 C.3     1  UNL1        0.1693
      7 C         141.0149  140.6722  159.5469 C.3     1  UNL1        0.0651
      8 C         141.9858  139.9721  158.6429 C.3     1  UNL1        0.0976
      9 C         141.8722  134.4268  155.7174 C.ar    1  UNL1        0.2501
     10 N         141.1362  135.2479  154.7006 N.ar    1  UNL1       -0.1068
     11 N         141.2990  136.6935  155.0663 N.ar    1  UNL1       -0.1021
     12 C         142.1358  136.7658  156.3091 C.ar    1  UNL1        0.3042
     13 O         142.4900  135.3649  156.7115 O.2     1  UNL1       -0.4122
     14 C         142.1739  129.9373  155.7755 C.ar    1  UNL1        0.1387
     15 C         143.0518  130.7596  156.6716 C.ar    1  UNL1        0.0371
     16 C         142.9512  132.2561  156.6523 C.ar    1  UNL1        0.0078
     17 C         141.9728  132.9303  155.7368 C.ar    1  UNL1        0.0553
     18 C         141.0949  132.1079  154.8406 C.ar    1  UNL1        0.0078
     19 C         141.1955  130.6114  154.8600 C.ar    1  UNL1        0.0371
     20 C         141.0645  127.6117  156.1085 C.3     1  UNL1        0.2525
     21 O         142.2745  128.4408  155.7948 O.3     1  UNL1       -0.4714
     22 O         138.6626  140.8191  160.6401 O.3     1  UNL1       -0.4791
     23 C         138.6026  140.4629  162.0960 C.ar    1  UNL1        0.1384
     24 C         138.7761  139.0366  162.5269 C.ar    1  UNL1        0.0366
     25 C         138.7162  138.6804  163.9827 C.ar    1  UNL1        0.0002
     26 C         138.4827  139.7505  165.0076 C.ar    1  UNL1       -0.0059
     27 C         138.3092  141.1768  164.5768 C.ar    1  UNL1        0.0002
     28 C         138.3691  141.5330  163.1209 C.ar    1  UNL1        0.0366
     29 C         138.4228  139.3943  166.4636 C.3     1  UNL1        0.0992
     30 N         139.5736  139.7286  167.3656 N.3     1  UNL1       -0.2665
     31 C         139.3204  140.1132  168.7932 C.3     1  UNL1        0.0899
     32 C         140.4712  140.4476  169.6953 C.3     1  UNL1        0.0897
     33 N         141.8752  140.3974  169.1697 N.3     1  UNL1       -0.2691
     34 C         143.0262  140.7318  170.0718 C.3     1  UNL1        0.0897
     35 C         142.1284  140.0129  167.7421 C.3     1  UNL1        0.0897
     36 C         140.9776  139.6784  166.8401 C.3     1  UNL1        0.0899
@<TRIPOS>BOND
     1    20    21    1
     2    21    14    1
     3    14    15   ar
     4    15    16   ar
     5    16    17   ar
     6    17     9    1
     7     9    10   ar
     8    10    11   ar
     9    11    12   ar
    10    12     1    1
    11     1     2    2
    12     1     3   am
    13     3     4    1
    14     4     5    1
    15     5     6    1
    16     6    22    1
    17    22    23    1
    18    23    24   ar
    19    24    25   ar
    20    25    26   ar
    21    26    29    1
    22    29    30    1
    23    30    31    1
    24    31    32    1
    25    32    33    1
    26    33    34    1
    27    33    35    1
    28    35    36    1
    29    26    27   ar
    30    27    28   ar
    31     6     7    1
    32     7     8    1
    33    12    13   ar
    34    17    18   ar
    35    18    19   ar
    36    19    14   ar
    37    13     9   ar
    38     8     3    1
    39    28    23   ar
    40    36    30    1
@<TRIPOS>MOLECULE
*****
 36 40 0 0 0
SMALL
GASTEIGER

@<TRIPOS>ATOM
      1 C         143.7046  142.4521  157.9657 C.2     1  UNL1        0.3045
      2 O         143.3368  143.8613  158.3250 O.2     1  UNL1       -0.2647
      3 N         143.1814  141.3087  158.7836 N.am    1  UNL1       -0.2720
      4 C         143.5492  139.8996  158.4244 C.3     1  UNL1        0.0976
      5 C         143.0260  138.7562  159.2422 C.3     1  UNL1        0.0651
      6 C         142.1350  139.0220  160.4193 C.3     1  UNL1        0.1693
      7 C         141.7673  140.4311  160.7785 C.3     1  UNL1        0.0651
      8 C         142.2905  141.5745  159.9607 C.3     1  UNL1        0.0976
      9 C         146.5360  142.1125  155.3326 C.ar    1  UNL1        0.2501
     10 N         145.3974  141.4426  154.6220 N.ar    1  UNL1       -0.1068
     11 N         144.1982  141.4883  155.5219 N.ar    1  UNL1       -0.1021
     12 C         144.5956  142.1864  156.7886 C.ar    1  UNL1        0.3042
     13 O         146.0404  142.5722  156.6716 O.2     1  UNL1       -0.4122
     14 C         150.7061  142.6488  153.7288 C.ar    1  UNL1        0.1387
     15 C         150.4756  141.8174  154.9557 C.ar    1  UNL1        0.0371
     16 C         149.0856  141.6386  155.4903 C.ar    1  UNL1        0.0078
     17 C         147.9260  142.2913  154.7980 C.ar    1  UNL1        0.0553
     18 C         148.1565  143.1227  153.5710 C.ar    1  UNL1        0.0078
     19 C         149.5465  143.3015  153.0364 C.ar    1  UNL1        0.0371
     20 C         152.7713  144.1635  153.2921 C.3     1  UNL1        0.2525
     21 O         152.0961  142.8276  153.1942 O.3     1  UNL1       -0.4714
     22 O         141.6118  137.8786  161.2372 O.3     1  UNL1       -0.4791
     23 C         140.9807  138.1388  162.5728 C.ar    1  UNL1        0.1384
     24 C         141.8348  138.2170  163.8034 C.ar    1  UNL1        0.0366
     25 C         141.2037  138.4772  165.1391 C.ar    1  UNL1        0.0002
     26 C         139.7185  138.6593  165.2441 C.ar    1  UNL1       -0.0059
     27 C         138.8644  138.5811  164.0135 C.ar    1  UNL1        0.0002
     28 C         139.4955  138.3209  162.6779 C.ar    1  UNL1        0.0366
     29 C         139.0874  138.9196  166.5798 C.3     1  UNL1        0.0992
     30 N         139.4936  140.1215  167.3799 N.3     1  UNL1       -0.2665
     31 C         139.9993  141.3501  166.6835 C.3     1  UNL1        0.0899
     32 C         140.4056  142.5521  167.4836 C.3     1  UNL1        0.0897
     33 N         140.3063  142.5255  168.9800 N.3     1  UNL1       -0.2691
     34 C         140.7126  143.7275  169.7802 C.3     1  UNL1        0.0897
     35 C         139.8006  141.2969  169.6764 C.3     1  UNL1        0.0897
     36 C         139.3943  140.0949  168.8764 C.3     1  UNL1        0.0899
@<TRIPOS>BOND
     1    20    21    1
     2    21    14    1
     3    14    15   ar
     4    15    16   ar
     5    16    17   ar
     6    17     9    1
     7     9    10   ar
     8    10    11   ar
     9    11    12   ar
    10    12     1    1
    11     1     2    2
    12     1     3   am
    13     3     4    1
    14     4     5    1
    15     5     6    1
    16     6    22    1
    17    22    23    1
    18    23    24   ar
    19    24    25   ar
    20    25    26   ar
    21    26    29    1
    22    29    30    1
    23    30    31    1
    24    31    32    1
    25    32    33    1
    26    33    34    1
    27    33    35    1
    28    35    36    1
    29    26    27   ar
    30    27    28   ar
    31     6     7    1
    32     7     8    1
    33    12    13   ar
    34    17    18   ar
    35    18    19   ar
    36    19    14   ar
    37    13     9   ar
    38     8     3    1
    39    28    23   ar
    40    36    30    1
@<TRIPOS>MOLECULE
*****
 36 40 0 0 0
SMALL
GASTEIGER

@<TRIPOS>ATOM
      1 C         144.0406  141.4691  159.5417 C.2     1  UNL1        0.3045
      2 O         145.0159  142.3994  158.8836 O.2     1  UNL1       -0.2647
      3 N         143.4524  140.3278  158.7661 N.am    1  UNL1       -0.2720
      4 C         142.4770  139.3975  159.4242 C.3     1  UNL1        0.0976
      5 C         141.8889  138.2563  158.6487 C.3     1  UNL1        0.0651
      6 C         142.2760  138.0454  157.2149 C.3     1  UNL1        0.1693
      7 C         143.2513  138.9757  156.5568 C.3     1  UNL1        0.0651
      8 C         143.8395  140.1170  157.3324 C.3     1  UNL1        0.0976
      9 C         143.2553  141.2983  163.3391 C.ar    1  UNL1        0.2501
     10 N         142.8602  142.7107  163.0246 N.ar    1  UNL1       -0.1068
     11 N         143.1062  142.9466  161.5638 N.ar    1  UNL1       -0.1021
     12 C         143.6535  141.6800  160.9755 C.ar    1  UNL1        0.3042
     13 O         143.7456  140.6613  162.0726 O.2     1  UNL1       -0.4122
     14 C         143.0126  139.3195  167.3734 C.ar    1  UNL1        0.1387
     15 C         142.5905  140.7499  167.2130 C.ar    1  UNL1        0.0371
     16 C         142.6714  141.4095  165.8682 C.ar    1  UNL1        0.0078
     17 C         143.1744  140.6387  164.6838 C.ar    1  UNL1        0.0553
     18 C         143.5966  139.2084  164.8442 C.ar    1  UNL1        0.0078
     19 C         143.5157  138.5488  166.1890 C.ar    1  UNL1        0.0371
     20 C         142.5131  139.4548  169.9194 C.3     1  UNL1        0.2525
     21 O         142.9317  138.6600  168.7181 O.3     1  UNL1       -0.4714
     22 O         141.6878  136.9041  156.4393 O.3     1  UNL1       -0.4791
     23 C         142.4223  135.5992  156.3519 C.ar    1  UNL1        0.1384
     24 C         143.2748  135.1402  157.4976 C.ar    1  UNL1        0.0366
     25 C         144.0093  133.8353  157.4101 C.ar    1  UNL1        0.0002
     26 C         143.8913  132.9894  156.1771 C.ar    1  UNL1       -0.0059
     27 C         143.0388  133.4483  155.0314 C.ar    1  UNL1        0.0002
     28 C         142.3043  134.7533  155.1188 C.ar    1  UNL1        0.0366
     29 C         144.6259  131.6844  156.0897 C.3     1  UNL1        0.0992
     30 N         144.0649  130.4620  156.7537 N.3     1  UNL1       -0.2665
     31 C         144.4498  130.1321  158.1655 C.3     1  UNL1        0.0899
     32 C         143.8889  128.9097  158.8297 C.3     1  UNL1        0.0897
     33 N         142.9431  128.0172  158.0821 N.3     1  UNL1       -0.2691
     34 C         142.3822  126.7947  158.7462 C.3     1  UNL1        0.0897
     35 C         142.5583  128.3471  156.6703 C.3     1  UNL1        0.0897
     36 C         143.1192  129.5695  156.0061 C.3     1  UNL1        0.0899
@<TRIPOS>BOND
     1    20    21    1
     2    21    14    1
     3    14    15   ar
     4    15    16   ar
     5    16    17   ar
     6    17     9    1
     7     9    10   ar
     8    10    11   ar
     9    11    12   ar
    10    12     1    1
    11     1     2    2
    12     1     3   am
    13     3     4    1
    14     4     5    1
    15     5     6    1
    16     6    22    1
    17    22    23    1
    18    23    24   ar
    19    24    25   ar
    20    25    26   ar
    21    26    29    1
    22    29    30    1
    23    30    31    1
    24    31    32    1
    25    32    33    1
    26    33    34    1
    27    33    35    1
    28    35    36    1
    29    26    27   ar
    30    27    28   ar
    31     6     7    1
    32     7     8    1
    33    12    13   ar
    34    17    18   ar
    35    18    19   ar
    36    19    14   ar
    37    13     9   ar
    38     8     3    1
    39    28    23   ar
    40    36    30    1
