@<TRIPOS>MOLECULE
*****
 37 42 0 0 0
SMALL
GASTEIGER

@<TRIPOS>ATOM
      1 C         139.7418  139.9516  163.0475 C.ar    1  UNL1       -0.0077
      2 C         140.8844  139.2999  162.3266 C.ar    1  UNL1        0.0159
      3 C         140.7775  139.0097  160.8588 C.ar    1  UNL1        0.0854
      4 N         141.9201  138.3581  160.1379 N.ar    1  UNL1       -0.2136
      5 C         141.8131  138.0679  158.6701 C.ar    1  UNL1        0.2208
      6 N         140.5634  138.4295  157.9233 N.ar    1  UNL1       -0.2120
      7 C         139.4208  139.0811  158.6442 C.ar    1  UNL1        0.1033
      8 C         139.5278  139.3713  160.1119 C.ar    1  UNL1        0.0378
      9 C         138.3852  140.0230  160.8329 C.ar    1  UNL1        0.0141
     10 C         138.4922  140.3131  162.3007 C.ar    1  UNL1        0.0539
     11 CL        137.3496  140.9648  163.0216 Cl      1  UNL1       -0.0826
     12 F         138.5261  138.0682  165.0413 F       1  UNL1       -0.2354
     13 C         139.2410  139.3000  165.5122 C.3     1  UNL1        0.1808
     14 C         139.3479  139.5902  166.9800 C.3     1  UNL1        0.1082
     15 N         140.0627  140.8219  167.4508 N.3     1  UNL1       -0.2671
     16 C         140.6705  141.7636  166.4539 C.3     1  UNL1        0.0727
     17 C         140.5636  141.4735  164.9862 C.3     1  UNL1        0.0245
     18 C         139.8488  140.2417  164.5153 C.3     1  UNL1        0.0586
     19 C         140.1696  141.1121  168.9187 C.3     1  UNL1        0.1228
     20 C         140.2653  140.0921  170.0143 C.3     1  UNL1        0.1610
     21 O         140.3545  140.8227  171.3213 O.3     1  UNL1       -0.3493
     22 C         140.3140  142.2943  171.0334 C.3     1  UNL1        0.1788
     23 C         140.1998  142.4731  169.5485 C.3     1  UNL1        0.2072
     24 F         140.1282  143.7830  168.8211 F       1  UNL1       -0.2330
     25 N         142.9557  137.4162  157.9491 N.pl3   1  UNL1       -0.2794
     26 H         143.8768  137.7276  158.1033 H       1  UNL1        0.1552
     27 C         142.6948  136.2901  156.9932 C.ar    1  UNL1        0.1001
     28 C         141.9986  136.4008  155.6692 C.ar    1  UNL1        0.1372
     29 N         141.9578  135.0347  155.0512 N.ar    1  UNL1       -0.1654
     30 N         142.6288  134.0795  155.9933 N.ar    1  UNL1       -0.2353
     31 C         143.0843  134.8555  157.1935 C.ar    1  UNL1        0.1499
     32 CL        143.8031  134.2951  158.3849 Cl      1  UNL1       -0.0603
     33 C         142.8122  132.6071  155.7737 C.3     1  UNL1        0.1725
     34 C         142.2332  131.2567  155.4719 C.3     1  UNL1        0.0986
     35 C         143.7088  131.4071  155.6952 C.3     1  UNL1        0.2863
     36 F         144.1456  129.9831  155.5178 F       1  UNL1       -0.2022
     37 F         145.0328  132.0521  155.9803 F       1  UNL1       -0.2022
@<TRIPOS>BOND
     1    12    13    1
     2    13    14    1
     3    14    15    1
     4    15    19    1
     5    19    20    1
     6    20    21    1
     7    21    22    1
     8    22    23    1
     9    23    24    1
    10    15    16    1
    11    16    17    1
    12    17    18    1
    13    18     1    1
    14     1     2   ar
    15     2     3   ar
    16     3     4   ar
    17     4     5   ar
    18     5    25    1
    19    25    27    1
    20    27    28   ar
    21    28    29   ar
    22    29    30   ar
    23    30    33    1
    24    33    34    1
    25    34    35    1
    26    35    36    1
    27    35    37    1
    28    30    31   ar
    29    31    32    1
    30     5     6   ar
    31     6     7   ar
    32     7     8   ar
    33     8     9   ar
    34     9    10   ar
    35    10    11    1
    36    18    13    1
    37    10     1   ar
    38    23    19    1
    39     8     3   ar
    40    31    27   ar
    41    35    33    1
    42    25    26    1
@<TRIPOS>MOLECULE
*****
 37 42 0 0 0
SMALL
GASTEIGER

@<TRIPOS>ATOM
      1 C         142.2252  139.7220  163.6566 C.ar    1  UNL1       -0.0077
      2 C         142.7596  140.7844  162.7424 C.ar    1  UNL1        0.0159
      3 C         143.0923  140.4505  161.3183 C.ar    1  UNL1        0.0854
      4 N         143.6267  141.5128  160.4041 N.ar    1  UNL1       -0.2136
      5 C         143.9594  141.1789  158.9801 C.ar    1  UNL1        0.2208
      6 N         143.7577  139.7827  158.4704 N.ar    1  UNL1       -0.2120
      7 C         143.2233  138.7203  159.3846 C.ar    1  UNL1        0.1033
      8 C         142.8906  139.0543  160.8086 C.ar    1  UNL1        0.0378
      9 C         142.3562  137.9919  161.7229 C.ar    1  UNL1        0.0141
     10 C         142.0235  138.3258  163.1469 C.ar    1  UNL1        0.0539
     11 CL        141.4891  137.2635  164.0612 Cl      1  UNL1       -0.0826
     12 F         144.0678  138.8722  165.8663 F       1  UNL1       -0.2354
     13 C         142.8138  139.6310  166.1856 C.3     1  UNL1        0.1808
     14 C         142.4811  139.9649  167.6096 C.3     1  UNL1        0.1082
     15 N         141.2272  140.7236  167.9287 N.3     1  UNL1       -0.2671
     16 C         140.3059  141.1485  166.8239 C.3     1  UNL1        0.0727
     17 C         140.6386  140.8147  165.3999 C.3     1  UNL1        0.0245
     18 C         141.8925  140.0559  165.0807 C.3     1  UNL1        0.0586
     19 C         140.8945  141.0575  169.3528 C.3     1  UNL1        0.1228
     20 C         140.9310  140.1072  170.5128 C.3     1  UNL1        0.1610
     21 O         140.5260  140.8626  171.7438 O.3     1  UNL1       -0.3493
     22 C         140.2391  142.2798  171.3445 C.3     1  UNL1        0.1788
     23 C         140.4669  142.4002  169.8668 C.3     1  UNL1        0.2072
     24 F         140.2968  143.6448  169.0471 F       1  UNL1       -0.2330
     25 N         144.4938  142.2412  158.0658 N.pl3   1  UNL1       -0.2794
     26 H         144.2290  143.1806  158.1949 H       1  UNL1        0.1552
     27 C         145.4316  141.8722  156.9548 C.ar    1  UNL1        0.1001
     28 C         145.1101  140.9879  155.7867 C.ar    1  UNL1        0.1372
     29 N         146.3354  140.8919  154.9268 N.ar    1  UNL1       -0.1654
     30 N         147.4143  141.7169  155.5635 N.ar    1  UNL1       -0.2353
     31 C         146.8557  142.3227  156.8169 C.ar    1  UNL1        0.1499
     32 CL        147.5920  143.2214  157.7658 Cl      1  UNL1       -0.0603
     33 C         148.8071  141.9033  155.0390 C.3     1  UNL1        0.1725
     34 C         150.2781  141.6245  155.1313 C.3     1  UNL1        0.0986
     35 C         149.7487  142.5049  154.0383 C.3     1  UNL1        0.2863
     36 F         151.0285  142.8413  153.3319 F       1  UNL1       -0.2022
     37 F         148.7748  143.2684  153.1905 F       1  UNL1       -0.2022
@<TRIPOS>BOND
     1    12    13    1
     2    13    14    1
     3    14    15    1
     4    15    19    1
     5    19    20    1
     6    20    21    1
     7    21    22    1
     8    22    23    1
     9    23    24    1
    10    15    16    1
    11    16    17    1
    12    17    18    1
    13    18     1    1
    14     1     2   ar
    15     2     3   ar
    16     3     4   ar
    17     4     5   ar
    18     5    25    1
    19    25    27    1
    20    27    28   ar
    21    28    29   ar
    22    29    30   ar
    23    30    33    1
    24    33    34    1
    25    34    35    1
    26    35    36    1
    27    35    37    1
    28    30    31   ar
    29    31    32    1
    30     5     6   ar
    31     6     7   ar
    32     7     8   ar
    33     8     9   ar
    34     9    10   ar
    35    10    11    1
    36    18    13    1
    37    10     1   ar
    38    23    19    1
    39     8     3   ar
    40    31    27   ar
    41    35    33    1
    42    25    26    1
@<TRIPOS>MOLECULE
*****
 37 42 0 0 0
SMALL
GASTEIGER

@<TRIPOS>ATOM
      1 C         142.3282  142.9191  163.2784 C.ar    1  UNL1       -0.0077
      2 C         143.0217  141.8991  162.4249 C.ar    1  UNL1        0.0159
      3 C         143.1829  142.1376  160.9527 C.ar    1  UNL1        0.0854
      4 N         143.8764  141.1176  160.0991 N.ar    1  UNL1       -0.2136
      5 C         144.0374  141.3562  158.6270 C.ar    1  UNL1        0.2208
      6 N         143.5050  142.6147  158.0085 N.ar    1  UNL1       -0.2120
      7 C         142.8115  143.6347  158.8621 C.ar    1  UNL1        0.1033
      8 C         142.6505  143.3962  160.3342 C.ar    1  UNL1        0.0378
      9 C         141.9569  144.4162  161.1878 C.ar    1  UNL1        0.0141
     10 C         141.7958  144.1777  162.6599 C.ar    1  UNL1        0.0539
     11 CL        141.1023  145.1977  163.5135 Cl      1  UNL1       -0.0826
     12 F         139.6020  142.4235  164.4281 F       1  UNL1       -0.2354
     13 C         140.8040  142.4328  165.3254 C.3     1  UNL1        0.1808
     14 C         140.6428  142.1943  166.7975 C.3     1  UNL1        0.1082
     15 N         141.8448  142.2036  167.6948 N.3     1  UNL1       -0.2671
     16 C         143.2079  142.4514  167.1199 C.3     1  UNL1        0.0727
     17 C         143.3691  142.6899  165.6479 C.3     1  UNL1        0.0245
     18 C         142.1671  142.6806  164.7506 C.3     1  UNL1        0.0586
     19 C         141.6837  141.9651  169.1670 C.3     1  UNL1        0.1228
     20 C         142.2146  142.8384  170.2649 C.3     1  UNL1        0.1610
     21 O         141.8225  142.2245  171.5761 O.3     1  UNL1       -0.3493
     22 C         141.0491  140.9718  171.2885 C.3     1  UNL1        0.1788
     23 C         140.9633  140.8115  169.7996 C.3     1  UNL1        0.2072
     24 F         140.2776  139.6938  169.0712 F       1  UNL1       -0.2330
     25 N         144.7310  140.3361  157.7734 N.pl3   1  UNL1       -0.2794
     26 H         144.8569  139.4185  158.1072 H       1  UNL1        0.1552
     27 C         145.2326  140.7142  156.4113 C.ar    1  UNL1        0.1001
     28 C         144.7871  140.1155  155.1101 C.ar    1  UNL1        0.1372
     29 N         145.5469  140.7887  154.0058 N.ar    1  UNL1       -0.1654
     30 N         146.4621  141.8034  154.6244 N.ar    1  UNL1       -0.2353
     31 C         146.2678  141.7574  156.1111 C.ar    1  UNL1        0.1499
     32 CL        146.9832  142.6057  157.1204 Cl      1  UNL1       -0.0603
     33 C         147.4058  142.7058  153.8861 C.3     1  UNL1        0.1725
     34 C         147.6479  143.7706  152.8577 C.3     1  UNL1        0.0986
     35 C         148.7983  143.2039  153.6357 C.3     1  UNL1        0.2863
     36 F         149.9275  143.9942  153.0437 F       1  UNL1       -0.2022
     37 F         149.5567  142.3628  154.6193 F       1  UNL1       -0.2022
@<TRIPOS>BOND
     1    12    13    1
     2    13    14    1
     3    14    15    1
     4    15    19    1
     5    19    20    1
     6    20    21    1
     7    21    22    1
     8    22    23    1
     9    23    24    1
    10    15    16    1
    11    16    17    1
    12    17    18    1
    13    18     1    1
    14     1     2   ar
    15     2     3   ar
    16     3     4   ar
    17     4     5   ar
    18     5    25    1
    19    25    27    1
    20    27    28   ar
    21    28    29   ar
    22    29    30   ar
    23    30    33    1
    24    33    34    1
    25    34    35    1
    26    35    36    1
    27    35    37    1
    28    30    31   ar
    29    31    32    1
    30     5     6   ar
    31     6     7   ar
    32     7     8   ar
    33     8     9   ar
    34     9    10   ar
    35    10    11    1
    36    18    13    1
    37    10     1   ar
    38    23    19    1
    39     8     3   ar
    40    31    27   ar
    41    35    33    1
    42    25    26    1
@<TRIPOS>MOLECULE
*****
 37 42 0 0 0
SMALL
GASTEIGER

@<TRIPOS>ATOM
      1 C         141.4210  143.0148  163.2798 C.ar    1  UNL1       -0.0077
      2 C         141.0451  141.8783  162.3759 C.ar    1  UNL1        0.0159
      3 C         141.0622  142.0663  160.8878 C.ar    1  UNL1        0.0854
      4 N         140.6863  140.9298  159.9839 N.ar    1  UNL1       -0.2136
      5 C         140.7034  141.1179  158.4958 C.ar    1  UNL1        0.2208
      6 N         141.0962  142.4425  157.9117 N.ar    1  UNL1       -0.2120
      7 C         141.4721  143.5790  158.8156 C.ar    1  UNL1        0.1033
      8 C         141.4550  143.3909  160.3037 C.ar    1  UNL1        0.0378
      9 C         141.8309  144.5274  161.2077 C.ar    1  UNL1        0.0141
     10 C         141.8138  144.3394  162.6957 C.ar    1  UNL1        0.0539
     11 CL        142.1897  145.4759  163.5997 Cl      1  UNL1       -0.0826
     12 F         138.9415  143.6518  164.8439 F       1  UNL1       -0.2354
     13 C         140.1642  143.1453  165.5500 C.3     1  UNL1        0.1808
     14 C         140.1471  142.9573  167.0380 C.3     1  UNL1        0.1082
     15 N         141.3698  142.4508  167.7440 N.3     1  UNL1       -0.2671
     16 C         142.6095  142.1323  166.9620 C.3     1  UNL1        0.0727
     17 C         142.6266  142.3203  165.4739 C.3     1  UNL1        0.0245
     18 C         141.4039  142.8268  164.7679 C.3     1  UNL1        0.0586
     19 C         141.3528  142.2627  169.2321 C.3     1  UNL1        0.1228
     20 C         142.3151  142.8712  170.2088 C.3     1  UNL1        0.1610
     21 O         141.9276  142.4178  171.5851 O.3     1  UNL1       -0.3493
     22 C         140.7257  141.5291  171.4590 C.3     1  UNL1        0.1788
     23 C         140.3705  141.4333  170.0049 C.3     1  UNL1        0.2072
     24 F         139.2328  140.6462  169.4252 F       1  UNL1       -0.2330
     25 N         140.3275  139.9814  157.5918 N.pl3   1  UNL1       -0.2794
     26 H         139.4792  140.0089  157.0931 H       1  UNL1        0.1552
     27 C         141.2443  138.8029  157.4478 C.ar    1  UNL1        0.1001
     28 C         142.6548  138.7165  157.9508 C.ar    1  UNL1        0.1372
     29 N         143.1938  137.3641  157.5893 N.ar    1  UNL1       -0.1654
     30 N         142.1164  136.6148  156.8629 N.ar    1  UNL1       -0.2353
     31 C         140.9116  137.5040  156.7755 C.ar    1  UNL1        0.1499
     32 CL        139.6036  137.1554  156.1292 Cl      1  UNL1       -0.0603
     33 C         142.2248  135.2209  156.3194 C.3     1  UNL1        0.1725
     34 C         141.9485  134.2256  155.2318 C.3     1  UNL1        0.0986
     35 C         142.6889  133.8020  156.4657 C.3     1  UNL1        0.2863
     36 F         142.9241  132.3558  156.1446 F       1  UNL1       -0.2022
     37 F         143.3475  133.8807  157.8111 F       1  UNL1       -0.2022
@<TRIPOS>BOND
     1    12    13    1
     2    13    14    1
     3    14    15    1
     4    15    19    1
     5    19    20    1
     6    20    21    1
     7    21    22    1
     8    22    23    1
     9    23    24    1
    10    15    16    1
    11    16    17    1
    12    17    18    1
    13    18     1    1
    14     1     2   ar
    15     2     3   ar
    16     3     4   ar
    17     4     5   ar
    18     5    25    1
    19    25    27    1
    20    27    28   ar
    21    28    29   ar
    22    29    30   ar
    23    30    33    1
    24    33    34    1
    25    34    35    1
    26    35    36    1
    27    35    37    1
    28    30    31   ar
    29    31    32    1
    30     5     6   ar
    31     6     7   ar
    32     7     8   ar
    33     8     9   ar
    34     9    10   ar
    35    10    11    1
    36    18    13    1
    37    10     1   ar
    38    23    19    1
    39     8     3   ar
    40    31    27   ar
    41    35    33    1
    42    25    26    1
@<TRIPOS>MOLECULE
*****
 37 42 0 0 0
SMALL
GASTEIGER

@<TRIPOS>ATOM
      1 C         143.0602  141.7237  163.3925 C.ar    1  UNL1       -0.0077
      2 C         142.5547  141.0699  162.1408 C.ar    1  UNL1        0.0159
      3 C         143.1796  141.3995  160.8175 C.ar    1  UNL1        0.0854
      4 N         142.6742  140.7457  159.5657 N.ar    1  UNL1       -0.2136
      5 C         143.2991  141.0754  158.2426 C.ar    1  UNL1        0.2208
      6 N         144.4295  142.0588  158.1712 N.ar    1  UNL1       -0.2120
      7 C         144.9350  142.7126  159.4230 C.ar    1  UNL1        0.1033
      8 C         144.3100  142.3829  160.7461 C.ar    1  UNL1        0.0378
      9 C         144.8155  143.0368  161.9980 C.ar    1  UNL1        0.0141
     10 C         144.1906  142.7071  163.3212 C.ar    1  UNL1        0.0539
     11 CL        144.6960  143.3609  164.5731 Cl      1  UNL1       -0.0826
     12 F         144.1746  139.4959  165.0643 F       1  UNL1       -0.2354
     13 C         142.9925  140.2802  165.5517 C.3     1  UNL1        0.1808
     14 C         142.3676  139.9505  166.8748 C.3     1  UNL1        0.1082
     15 N         141.1855  140.7348  167.3621 N.3     1  UNL1       -0.2671
     16 C         140.6283  141.8487  166.5262 C.3     1  UNL1        0.0727
     17 C         141.2531  142.1784  165.2031 C.3     1  UNL1        0.0245
     18 C         142.4352  141.3941  164.7158 C.3     1  UNL1        0.0586
     19 C         140.5606  140.4052  168.6854 C.3     1  UNL1        0.1228
     20 C         139.1038  140.1468  168.9325 C.3     1  UNL1        0.1610
     21 O         138.9255  139.8580  170.3936 O.3     1  UNL1       -0.3493
     22 C         140.2722  139.9380  171.0495 C.3     1  UNL1        0.1788
     23 C         141.2827  140.2761  169.9937 C.3     1  UNL1        0.2072
     24 F         142.7565  140.4540  170.2087 F       1  UNL1       -0.2330
     25 N         142.7937  140.4215  156.9907 N.pl3   1  UNL1       -0.2794
     26 H         142.1191  140.8759  156.4359 H       1  UNL1        0.1552
     27 C         143.3160  139.0755  156.5841 C.ar    1  UNL1        0.1001
     28 C         144.4808  138.8198  155.6743 C.ar    1  UNL1        0.1372
     29 N         144.6499  137.3350  155.5439 N.ar    1  UNL1       -0.1654
     30 N         143.5897  136.6731  156.3732 N.ar    1  UNL1       -0.2353
     31 C         142.7653  137.7488  157.0161 C.ar    1  UNL1        0.1499
     32 CL        141.5955  137.5352  157.9304 Cl      1  UNL1       -0.0603
     33 C         143.3890  135.1951  156.5317 C.3     1  UNL1        0.1725
     34 C         143.8825  133.8608  157.0073 C.3     1  UNL1        0.0986
     35 C         142.5481  133.9694  156.3308 C.3     1  UNL1        0.2863
     36 F         142.1189  132.5326  156.3695 F       1  UNL1       -0.2022
     37 F         141.3629  134.5769  155.6408 F       1  UNL1       -0.2022
@<TRIPOS>BOND
     1    12    13    1
     2    13    14    1
     3    14    15    1
     4    15    19    1
     5    19    20    1
     6    20    21    1
     7    21    22    1
     8    22    23    1
     9    23    24    1
    10    15    16    1
    11    16    17    1
    12    17    18    1
    13    18     1    1
    14     1     2   ar
    15     2     3   ar
    16     3     4   ar
    17     4     5   ar
    18     5    25    1
    19    25    27    1
    20    27    28   ar
    21    28    29   ar
    22    29    30   ar
    23    30    33    1
    24    33    34    1
    25    34    35    1
    26    35    36    1
    27    35    37    1
    28    30    31   ar
    29    31    32    1
    30     5     6   ar
    31     6     7   ar
    32     7     8   ar
    33     8     9   ar
    34     9    10   ar
    35    10    11    1
    36    18    13    1
    37    10     1   ar
    38    23    19    1
    39     8     3   ar
    40    31    27   ar
    41    35    33    1
    42    25    26    1
@<TRIPOS>MOLECULE
*****
 37 42 0 0 0
SMALL
GASTEIGER

@<TRIPOS>ATOM
      1 C         140.9977  139.6217  161.3955 C.ar    1  UNL1       -0.0077
      2 C         141.8222  138.5549  160.7382 C.ar    1  UNL1        0.0159
      3 C         141.9357  138.5092  159.2431 C.ar    1  UNL1        0.0854
      4 N         142.7602  137.4424  158.5858 N.ar    1  UNL1       -0.2136
      5 C         142.8737  137.3968  157.0908 C.ar    1  UNL1        0.2208
      6 N         142.1627  138.4180  156.2532 N.ar    1  UNL1       -0.2120
      7 C         141.3382  139.4848  156.9105 C.ar    1  UNL1        0.1033
      8 C         141.2247  139.5304  158.4055 C.ar    1  UNL1        0.0378
      9 C         140.4002  140.5972  159.0628 C.ar    1  UNL1        0.0141
     10 C         140.2867  140.6428  160.5578 C.ar    1  UNL1        0.0539
     11 CL        139.4622  141.7097  161.2152 Cl      1  UNL1       -0.0826
     12 F         138.9055  137.9865  162.7915 F       1  UNL1       -0.2354
     13 C         139.8381  138.8497  163.5886 C.3     1  UNL1        0.1808
     14 C         139.7245  138.8954  165.0835 C.3     1  UNL1        0.1082
     15 N         140.6570  139.7586  165.8805 N.3     1  UNL1       -0.2671
     16 C         141.7031  140.5762  165.1824 C.3     1  UNL1        0.0727
     17 C         141.8167  140.5306  163.6875 C.3     1  UNL1        0.0245
     18 C         140.8842  139.6673  162.8905 C.3     1  UNL1        0.0586
     19 C         140.5435  139.8043  167.3755 C.3     1  UNL1        0.1228
     20 C         139.2691  139.9044  168.1603 C.3     1  UNL1        0.1610
     21 O         139.6224  139.9199  169.6180 O.3     1  UNL1       -0.3493
     22 C         141.1152  139.8292  169.7341 C.3     1  UNL1        0.1788
     23 C         141.6844  139.7578  168.3482 C.3     1  UNL1        0.2072
     24 F         143.1392  139.6574  167.9967 F       1  UNL1       -0.2330
     25 N         143.6982  136.3299  156.4334 N.pl3   1  UNL1       -0.2794
     26 H         144.5295  136.5697  155.9637 H       1  UNL1        0.1552
     27 C         143.2561  134.8978  156.4918 C.ar    1  UNL1        0.1001
     28 C         143.5291  133.9356  157.6097 C.ar    1  UNL1        0.1372
     29 N         142.9051  132.6195  157.2514 N.ar    1  UNL1       -0.1654
     30 N         142.2464  132.7682  155.9120 N.ar    1  UNL1       -0.2353
     31 C         142.4633  134.1763  155.4426 C.ar    1  UNL1        0.1499
     32 CL        141.9735  134.7603  154.1507 Cl      1  UNL1       -0.0603
     33 C         141.5016  131.6970  155.1719 C.3     1  UNL1        0.1725
     34 C         140.5514  131.2895  154.0850 C.3     1  UNL1        0.0986
     35 C         141.1615  130.2491  154.9769 C.3     1  UNL1        0.2863
     36 F         140.5339  129.0136  154.4029 F       1  UNL1       -0.2022
     37 F         141.9897  129.6378  156.0681 F       1  UNL1       -0.2022
@<TRIPOS>BOND
     1    12    13    1
     2    13    14    1
     3    14    15    1
     4    15    19    1
     5    19    20    1
     6    20    21    1
     7    21    22    1
     8    22    23    1
     9    23    24    1
    10    15    16    1
    11    16    17    1
    12    17    18    1
    13    18     1    1
    14     1     2   ar
    15     2     3   ar
    16     3     4   ar
    17     4     5   ar
    18     5    25    1
    19    25    27    1
    20    27    28   ar
    21    28    29   ar
    22    29    30   ar
    23    30    33    1
    24    33    34    1
    25    34    35    1
    26    35    36    1
    27    35    37    1
    28    30    31   ar
    29    31    32    1
    30     5     6   ar
    31     6     7   ar
    32     7     8   ar
    33     8     9   ar
    34     9    10   ar
    35    10    11    1
    36    18    13    1
    37    10     1   ar
    38    23    19    1
    39     8     3   ar
    40    31    27   ar
    41    35    33    1
    42    25    26    1
@<TRIPOS>MOLECULE
*****
 37 42 0 0 0
SMALL
GASTEIGER

@<TRIPOS>ATOM
      1 C         142.9724  141.7605  163.2836 C.ar    1  UNL1       -0.0077
      2 C         142.4812  141.0733  162.0440 C.ar    1  UNL1        0.0159
      3 C         143.0812  141.4113  160.7113 C.ar    1  UNL1        0.0854
      4 N         142.5900  140.7242  159.4718 N.ar    1  UNL1       -0.2136
      5 C         143.1899  141.0622  158.1392 C.ar    1  UNL1        0.2208
      6 N         144.2811  142.0873  158.0462 N.ar    1  UNL1       -0.2120
      7 C         144.7722  142.7744  159.2858 C.ar    1  UNL1        0.1033
      8 C         144.1723  142.4364  160.6183 C.ar    1  UNL1        0.0378
      9 C         144.6634  143.1236  161.8580 C.ar    1  UNL1        0.0141
     10 C         144.0635  142.7856  163.1906 C.ar    1  UNL1        0.0539
     11 CL        144.5546  143.4727  164.4302 Cl      1  UNL1       -0.0826
     12 F         140.7495  143.4395  164.3970 F       1  UNL1       -0.2354
     13 C         141.2610  142.2620  165.1730 C.3     1  UNL1        0.1808
     14 C         140.6611  141.9241  166.5056 C.3     1  UNL1        0.1082
     15 N         141.1726  140.7467  167.2814 N.3     1  UNL1       -0.2671
     16 C         142.2840  139.9071  166.7247 C.3     1  UNL1        0.0727
     17 C         142.8839  140.2451  165.3921 C.3     1  UNL1        0.0245
     18 C         142.3724  141.4225  164.6162 C.3     1  UNL1        0.0586
     19 C         140.5726  140.4087  168.6141 C.3     1  UNL1        0.1228
     20 C         139.1160  140.1853  168.8941 C.3     1  UNL1        0.1610
     21 O         138.9670  139.8733  170.3537 O.3     1  UNL1       -0.3493
     22 C         140.3317  139.9039  170.9758 C.3     1  UNL1        0.1788
     23 C         141.3239  140.2347  169.9006 C.3     1  UNL1        0.2072
     24 F         142.8071  140.3682  170.0805 F       1  UNL1       -0.2330
     25 N         142.6988  140.3751  156.8995 N.pl3   1  UNL1       -0.2794
     26 H         142.0059  140.7991  156.3434 H       1  UNL1        0.1552
     27 C         143.2634  139.0419  156.5073 C.ar    1  UNL1        0.1001
     28 C         144.4696  138.8143  155.6452 C.ar    1  UNL1        0.1372
     29 N         144.6726  137.3340  155.5134 N.ar    1  UNL1       -0.1654
     30 N         143.5918  136.6466  156.2940 N.ar    1  UNL1       -0.2353
     31 C         142.7209  137.7021  156.9083 C.ar    1  UNL1        0.1499
     32 CL        141.5185  137.4604  157.7719 Cl      1  UNL1       -0.0603
     33 C         143.4133  135.1640  156.4356 C.3     1  UNL1        0.1725
     34 C         143.9565  133.8217  156.8269 C.3     1  UNL1        0.0986
     35 C         142.5609  133.9384  156.2895 C.3     1  UNL1        0.2863
     36 F         142.1428  132.4986  156.3356 F       1  UNL1       -0.2022
     37 F         141.3106  134.5552  155.7361 F       1  UNL1       -0.2022
@<TRIPOS>BOND
     1    12    13    1
     2    13    14    1
     3    14    15    1
     4    15    19    1
     5    19    20    1
     6    20    21    1
     7    21    22    1
     8    22    23    1
     9    23    24    1
    10    15    16    1
    11    16    17    1
    12    17    18    1
    13    18     1    1
    14     1     2   ar
    15     2     3   ar
    16     3     4   ar
    17     4     5   ar
    18     5    25    1
    19    25    27    1
    20    27    28   ar
    21    28    29   ar
    22    29    30   ar
    23    30    33    1
    24    33    34    1
    25    34    35    1
    26    35    36    1
    27    35    37    1
    28    30    31   ar
    29    31    32    1
    30     5     6   ar
    31     6     7   ar
    32     7     8   ar
    33     8     9   ar
    34     9    10   ar
    35    10    11    1
    36    18    13    1
    37    10     1   ar
    38    23    19    1
    39     8     3   ar
    40    31    27   ar
    41    35    33    1
    42    25    26    1
@<TRIPOS>MOLECULE
*****
 37 42 0 0 0
SMALL
GASTEIGER

@<TRIPOS>ATOM
      1 C         142.6743  140.7386  163.5626 C.ar    1  UNL1       -0.0077
      2 C         141.8364  141.3551  162.4820 C.ar    1  UNL1        0.0159
      3 C         142.2279  141.1904  161.0433 C.ar    1  UNL1        0.0854
      4 N         141.3901  141.8069  159.9627 N.ar    1  UNL1       -0.2136
      5 C         141.7816  141.6422  158.5241 C.ar    1  UNL1        0.2208
      6 N         143.0110  140.8609  158.1662 N.ar    1  UNL1       -0.2120
      7 C         143.8489  140.2443  159.2468 C.ar    1  UNL1        0.1033
      8 C         143.4573  140.4091  160.6854 C.ar    1  UNL1        0.0378
      9 C         144.2952  139.7925  161.7661 C.ar    1  UNL1        0.0141
     10 C         143.9037  139.9572  163.2047 C.ar    1  UNL1        0.0539
     11 CL        144.7415  139.3407  164.2854 Cl      1  UNL1       -0.0826
     12 F         144.0245  142.8142  165.2563 F       1  UNL1       -0.2354
     13 C         142.9578  141.9411  165.8481 C.3     1  UNL1        0.1808
     14 C         142.5664  142.1059  167.2867 C.3     1  UNL1        0.1082
     15 N         141.4998  141.2328  167.8784 N.3     1  UNL1       -0.2671
     16 C         140.8247  140.1950  167.0315 C.3     1  UNL1        0.0727
     17 C         141.2162  140.0303  165.5930 C.3     1  UNL1        0.0245
     18 C         142.2827  140.9033  165.0013 C.3     1  UNL1        0.0586
     19 C         141.1083  141.3976  169.3171 C.3     1  UNL1        0.1228
     20 C         141.2391  140.3585  170.3909 C.3     1  UNL1        0.1610
     21 O         140.7289  140.9489  171.6720 O.3     1  UNL1       -0.3493
     22 C         140.2828  142.3531  171.3898 C.3     1  UNL1        0.1788
     23 C         140.5173  142.6303  169.9344 C.3     1  UNL1        0.2072
     24 F         140.2140  143.9147  169.2215 F       1  UNL1       -0.2330
     25 N         140.9437  142.2587  157.4434 N.pl3   1  UNL1       -0.2794
     26 H         140.3248  141.6992  156.9208 H       1  UNL1        0.1552
     27 C         141.0489  143.7278  157.1590 C.ar    1  UNL1        0.1001
     28 C         142.2007  144.6164  157.5246 C.ar    1  UNL1        0.1372
     29 N         141.8844  146.0040  157.0507 N.ar    1  UNL1       -0.1654
     30 N         140.5370  145.9729  156.3922 N.ar    1  UNL1       -0.2353
     31 C         140.0207  144.5662  156.4591 C.ar    1  UNL1        0.1499
     32 CL        138.7068  144.0827  155.9207 Cl      1  UNL1       -0.0603
     33 C         139.8301  147.1431  155.7750 C.3     1  UNL1        0.1725
     34 C         139.5030  147.9756  154.5708 C.3     1  UNL1        0.0986
     35 C         138.9328  148.3375  155.9102 C.3     1  UNL1        0.2863
     36 F         138.1376  149.5528  155.5350 F       1  UNL1       -0.2022
     37 F         138.6388  148.2774  157.3799 F       1  UNL1       -0.2022
@<TRIPOS>BOND
     1    12    13    1
     2    13    14    1
     3    14    15    1
     4    15    19    1
     5    19    20    1
     6    20    21    1
     7    21    22    1
     8    22    23    1
     9    23    24    1
    10    15    16    1
    11    16    17    1
    12    17    18    1
    13    18     1    1
    14     1     2   ar
    15     2     3   ar
    16     3     4   ar
    17     4     5   ar
    18     5    25    1
    19    25    27    1
    20    27    28   ar
    21    28    29   ar
    22    29    30   ar
    23    30    33    1
    24    33    34    1
    25    34    35    1
    26    35    36    1
    27    35    37    1
    28    30    31   ar
    29    31    32    1
    30     5     6   ar
    31     6     7   ar
    32     7     8   ar
    33     8     9   ar
    34     9    10   ar
    35    10    11    1
    36    18    13    1
    37    10     1   ar
    38    23    19    1
    39     8     3   ar
    40    31    27   ar
    41    35    33    1
    42    25    26    1
@<TRIPOS>MOLECULE
*****
 37 42 0 0 0
SMALL
GASTEIGER

@<TRIPOS>ATOM
      1 C         139.2753  140.5713  163.3554 C.ar    1  UNL1       -0.0077
      2 C         140.2646  139.8179  162.5167 C.ar    1  UNL1        0.0159
      3 C         140.0240  139.6459  161.0461 C.ar    1  UNL1        0.0854
      4 N         141.0133  138.8924  160.2074 N.ar    1  UNL1       -0.2136
      5 C         140.7727  138.7205  158.7369 C.ar    1  UNL1        0.2208
      6 N         139.5429  139.3020  158.1050 N.ar    1  UNL1       -0.2120
      7 C         138.5535  140.0554  158.9438 C.ar    1  UNL1        0.1033
      8 C         138.7941  140.2274  160.4143 C.ar    1  UNL1        0.0378
      9 C         137.8048  140.9809  161.2531 C.ar    1  UNL1        0.0141
     10 C         138.0454  141.1529  162.7236 C.ar    1  UNL1        0.0539
     11 CL        137.0560  141.9064  163.5624 Cl      1  UNL1       -0.0826
     12 F         138.2689  138.5119  165.2909 F       1  UNL1       -0.2354
     13 C         139.0126  139.7136  165.7938 C.3     1  UNL1        0.1808
     14 C         139.2532  139.8856  167.2643 C.3     1  UNL1        0.1082
     15 N         139.9969  141.0872  167.7671 N.3     1  UNL1       -0.2671
     16 C         140.5001  142.1169  166.7994 C.3     1  UNL1        0.0727
     17 C         140.2596  141.9450  165.3289 C.3     1  UNL1        0.0245
     18 C         139.5158  140.7433  164.8260 C.3     1  UNL1        0.0586
     19 C         140.2374  141.2592  169.2377 C.3     1  UNL1        0.1228
     20 C         140.3881  140.1548  170.2416 C.3     1  UNL1        0.1610
     21 O         140.6133  140.7787  171.5869 O.3     1  UNL1       -0.3493
     22 C         140.6019  142.2688  171.4145 C.3     1  UNL1        0.1788
     23 C         140.3696  142.5657  169.9627 C.3     1  UNL1        0.2072
     24 F         140.2844  143.9297  169.3444 F       1  UNL1       -0.2330
     25 N         141.7621  137.9669  157.8980 N.pl3   1  UNL1       -0.2794
     26 H         141.7689  136.9825  157.9101 H       1  UNL1        0.1552
     27 C         142.7410  138.7133  157.0409 C.ar    1  UNL1        0.1001
     28 C         142.8473  138.6303  155.5470 C.ar    1  UNL1        0.1372
     29 N         143.9575  139.5395  155.1100 N.ar    1  UNL1       -0.1654
     30 N         144.5373  140.1844  156.3339 N.ar    1  UNL1       -0.2353
     31 C         143.7855  139.6739  157.5272 C.ar    1  UNL1        0.1499
     32 CL        144.0344  140.0566  158.9561 Cl      1  UNL1       -0.0603
     33 C         145.6701  141.1674  156.3599 C.3     1  UNL1        0.1725
     34 C         146.9525  141.6872  155.7809 C.3     1  UNL1        0.0986
     35 C         146.3496  142.3501  156.9838 C.3     1  UNL1        0.2863
     36 F         147.3605  143.4332  157.2183 F       1  UNL1       -0.2022
     37 F         145.3957  142.6369  158.1054 F       1  UNL1       -0.2022
@<TRIPOS>BOND
     1    12    13    1
     2    13    14    1
     3    14    15    1
     4    15    19    1
     5    19    20    1
     6    20    21    1
     7    21    22    1
     8    22    23    1
     9    23    24    1
    10    15    16    1
    11    16    17    1
    12    17    18    1
    13    18     1    1
    14     1     2   ar
    15     2     3   ar
    16     3     4   ar
    17     4     5   ar
    18     5    25    1
    19    25    27    1
    20    27    28   ar
    21    28    29   ar
    22    29    30   ar
    23    30    33    1
    24    33    34    1
    25    34    35    1
    26    35    36    1
    27    35    37    1
    28    30    31   ar
    29    31    32    1
    30     5     6   ar
    31     6     7   ar
    32     7     8   ar
    33     8     9   ar
    34     9    10   ar
    35    10    11    1
    36    18    13    1
    37    10     1   ar
    38    23    19    1
    39     8     3   ar
    40    31    27   ar
    41    35    33    1
    42    25    26    1
