@<TRIPOS>MOLECULE
*****
 35 38 0 0 0
SMALL
GASTEIGER

@<TRIPOS>ATOM
      1 C         137.9956  142.0148  157.8486 C.ar    1  UNL1        0.0690
      2 C         138.1564  141.6608  159.2974 C.ar    1  UNL1        0.0275
      3 C         139.1101  142.6424  159.9113 C.ar    1  UNL1        0.1140
      4 N         139.5388  143.6030  158.8420 N.ar    1  UNL1       -0.3223
      5 C         138.8500  143.2152  157.5672 C.ar    1  UNL1        0.0717
      6 C         139.0897  144.0051  156.3148 C.3     1  UNL1        0.1857
      7 O         140.0182  145.1829  156.3372 O.3     1  UNL1       -0.3454
      8 C         140.7070  145.5708  157.6120 C.3     1  UNL1        0.1671
      9 C         140.4673  144.7808  158.8644 C.3     1  UNL1        0.1379
     10 N         135.9415  141.9845  156.2580 N.am    1  UNL1       -0.2987
     11 C         137.1321  141.2948  156.8557 C.2     1  UNL1        0.2472
     12 O         137.4590  139.8854  156.4602 O.2     1  UNL1       -0.2701
     13 H         135.7269  142.9096  156.5175 H       1  UNL1        0.1500
     14 C         135.0780  141.2645  155.2651 C.3     1  UNL1        0.0943
     15 C         133.8015  140.6161  155.7123 C.ar    1  UNL1       -0.0045
     16 C         132.4995  141.3479  155.5728 C.ar    1  UNL1       -0.0027
     17 C         131.2230  140.6995  156.0200 C.ar    1  UNL1       -0.0003
     18 C         131.2484  139.3193  156.6068 C.ar    1  UNL1       -0.0000
     19 C         132.5503  138.5875  156.7463 C.ar    1  UNL1       -0.0003
     20 C         133.8269  139.2359  156.2991 C.ar    1  UNL1       -0.0027
     21 C         135.8564  139.8726  153.2142 C.3     1  UNL1        0.0021
     22 C         135.4910  141.1930  153.8249 C.3     1  UNL1        0.0241
     23 C         139.5568  142.6602  161.3431 C.2     1  UNL1        0.2619
     24 O         140.2514  141.4659  161.9270 O.2     1  UNL1       -0.2686
     25 N         139.3088  143.8725  162.1911 N.am    1  UNL1       -0.2975
     26 H         138.8529  144.6564  161.8079 H       1  UNL1        0.1500
     27 C         139.7555  143.8903  163.6229 C.3     1  UNL1        0.0944
     28 C         141.2164  143.9770  163.9518 C.ar    1  UNL1       -0.0045
     29 C         141.8656  142.9017  164.7717 C.ar    1  UNL1       -0.0027
     30 C         143.3266  142.9883  165.1006 C.ar    1  UNL1       -0.0003
     31 C         144.1382  144.1503  164.6096 C.ar    1  UNL1       -0.0000
     32 C         143.4890  145.2256  163.7897 C.ar    1  UNL1       -0.0003
     33 C         142.0281  145.1389  163.4608 C.ar    1  UNL1       -0.0027
     34 C         138.7412  143.8215  164.7258 C.3     1  UNL1        0.0241
     35 C         138.5668  144.9838  165.6579 C.3     1  UNL1        0.0021
@<TRIPOS>BOND
     1    21    22    1
     2    14    22    1
     3    14    10    1
     4    10    11   am
     5    11    12    2
     6    11     1    1
     7     1     2   ar
     8     2     3   ar
     9     3    23    1
    10    23    24    2
    11    23    25   am
    12    25    27    1
    13    27    34    1
    14    34    35    1
    15    27    28    1
    16    28    29   ar
    17    29    30   ar
    18    30    31   ar
    19    31    32   ar
    20    32    33   ar
    21     3     4   ar
    22     4     5   ar
    23     5     6    1
    24     6     7    1
    25     7     8    1
    26     8     9    1
    27    14    15    1
    28    15    16   ar
    29    16    17   ar
    30    17    18   ar
    31    18    19   ar
    32    19    20   ar
    33     5     1   ar
    34    20    15   ar
    35    33    28   ar
    36     9     4    1
    37    10    13    1
    38    25    26    1
@<TRIPOS>MOLECULE
*****
 35 38 0 0 0
SMALL
GASTEIGER

@<TRIPOS>ATOM
      1 C         139.2421  143.4264  160.0337 C.ar    1  UNL1        0.0690
      2 C         138.2610  142.3709  159.6174 C.ar    1  UNL1        0.0275
      3 C         138.2961  142.2698  158.1212 C.ar    1  UNL1        0.1140
      4 N         139.2988  143.2629  157.6128 N.ar    1  UNL1       -0.3223
      5 C         139.8835  143.9777  158.7948 C.ar    1  UNL1        0.0717
      6 C         140.9244  145.0382  158.5904 C.3     1  UNL1        0.1857
      7 O         141.3805  145.3839  157.2039 O.3     1  UNL1       -0.3454
      8 C         140.7958  144.6691  156.0219 C.3     1  UNL1        0.1671
      9 C         139.7550  143.6085  156.2263 C.3     1  UNL1        0.1379
     10 N         139.9239  142.8367  162.4704 N.am    1  UNL1       -0.2987
     11 C         139.5311  143.8554  161.4417 C.2     1  UNL1        0.2472
     12 O         139.4274  145.3028  161.8210 O.2     1  UNL1       -0.2701
     13 H         139.9920  141.8867  162.2215 H       1  UNL1        0.1500
     14 C         140.2129  143.2657  163.8785 C.3     1  UNL1        0.0943
     15 C         141.6299  143.4803  164.3212 C.ar    1  UNL1       -0.0045
     16 C         142.4119  144.6468  163.7942 C.ar    1  UNL1       -0.0027
     17 C         143.8289  144.8613  164.2370 C.ar    1  UNL1       -0.0003
     18 C         144.4639  143.9094  165.2068 C.ar    1  UNL1       -0.0000
     19 C         143.6819  142.7429  165.7339 C.ar    1  UNL1       -0.0003
     20 C         142.2649  142.5283  165.2911 C.ar    1  UNL1       -0.0027
     21 C         138.7979  144.8558  165.3681 C.3     1  UNL1        0.0021
     22 C         139.0849  143.4801  164.8436 C.3     1  UNL1        0.0241
     23 C         137.4729  141.3391  157.2808 C.2     1  UNL1        0.2619
     24 O         137.8182  139.8808  157.2189 O.2     1  UNL1       -0.2686
     25 N         136.3042  141.8668  156.5024 N.am    1  UNL1       -0.2975
     26 H         136.0775  142.8240  156.5430 H       1  UNL1        0.1500
     27 C         135.4811  140.9361  155.6620 C.3     1  UNL1        0.0944
     28 C         134.0702  140.6167  156.0590 C.ar    1  UNL1       -0.0045
     29 C         133.8045  139.6091  157.1378 C.ar    1  UNL1       -0.0027
     30 C         132.3936  139.2898  157.5348 C.ar    1  UNL1       -0.0003
     31 C         131.2486  139.9781  156.8528 C.ar    1  UNL1       -0.0000
     32 C         131.5143  140.9857  155.7739 C.ar    1  UNL1       -0.0003
     33 C         132.9252  141.3051  155.3770 C.ar    1  UNL1       -0.0027
     34 C         136.0688  140.3247  154.4248 C.3     1  UNL1        0.0241
     35 C         136.0949  138.8335  154.2649 C.3     1  UNL1        0.0021
@<TRIPOS>BOND
     1    21    22    1
     2    14    22    1
     3    14    10    1
     4    10    11   am
     5    11    12    2
     6    11     1    1
     7     1     2   ar
     8     2     3   ar
     9     3    23    1
    10    23    24    2
    11    23    25   am
    12    25    27    1
    13    27    34    1
    14    34    35    1
    15    27    28    1
    16    28    29   ar
    17    29    30   ar
    18    30    31   ar
    19    31    32   ar
    20    32    33   ar
    21     3     4   ar
    22     4     5   ar
    23     5     6    1
    24     6     7    1
    25     7     8    1
    26     8     9    1
    27    14    15    1
    28    15    16   ar
    29    16    17   ar
    30    17    18   ar
    31    18    19   ar
    32    19    20   ar
    33     5     1   ar
    34    20    15   ar
    35    33    28   ar
    36     9     4    1
    37    10    13    1
    38    25    26    1
@<TRIPOS>MOLECULE
*****
 35 38 0 0 0
SMALL
GASTEIGER

@<TRIPOS>ATOM
      1 C         138.1385  142.1088  158.1383 C.ar    1  UNL1        0.0690
      2 C         138.2458  141.8204  159.6064 C.ar    1  UNL1        0.0275
      3 C         139.1796  142.8275  160.2095 C.ar    1  UNL1        0.1140
      4 N         139.6493  143.7384  159.1143 N.ar    1  UNL1       -0.3223
      5 C         139.0059  143.2942  157.8342 C.ar    1  UNL1        0.0717
      6 C         139.2929  144.0266  156.5570 C.3     1  UNL1        0.1857
      7 O         140.2234  145.2030  156.5599 O.3     1  UNL1       -0.3454
      8 C         140.8669  145.6471  157.8400 C.3     1  UNL1        0.1671
      9 C         140.5798  144.9148  159.1172 C.3     1  UNL1        0.1379
     10 N         136.1412  142.0084  156.4797 N.am    1  UNL1       -0.2987
     11 C         137.3093  141.3459  157.1482 C.2     1  UNL1        0.2472
     12 O         137.6481  139.9206  156.8265 O.2     1  UNL1       -0.2701
     13 H         135.9188  142.9439  156.6908 H       1  UNL1        0.1500
     14 C         135.3120  141.2455  155.4895 C.3     1  UNL1        0.0943
     15 C         133.9723  140.7041  155.8923 C.ar    1  UNL1       -0.0045
     16 C         132.7189  141.4017  155.4538 C.ar    1  UNL1       -0.0027
     17 C         131.3792  140.8603  155.8566 C.ar    1  UNL1       -0.0003
     18 C         131.2930  139.6215  156.6979 C.ar    1  UNL1       -0.0000
     19 C         132.5465  138.9239  157.1363 C.ar    1  UNL1       -0.0003
     20 C         133.8862  139.4652  156.7335 C.ar    1  UNL1       -0.0027
     21 C         135.9171  139.6322  153.5451 C.3     1  UNL1        0.0021
     22 C         135.8226  141.0239  154.0966 C.3     1  UNL1        0.0241
     23 C         139.5743  142.9093  161.6544 C.2     1  UNL1        0.2619
     24 O         141.0110  142.7386  162.0502 O.2     1  UNL1       -0.2686
     25 N         138.5323  143.1619  162.7034 N.am    1  UNL1       -0.2975
     26 H         137.5893  143.2740  162.4437 H       1  UNL1        0.1500
     27 C         138.9270  143.2438  164.1483 C.3     1  UNL1        0.0944
     28 C         139.0088  141.9951  164.9753 C.ar    1  UNL1       -0.0045
     29 C         138.0587  140.8628  164.7199 C.ar    1  UNL1       -0.0027
     30 C         138.1405  139.6141  165.5470 C.ar    1  UNL1       -0.0003
     31 C         139.1723  139.4977  166.6294 C.ar    1  UNL1       -0.0000
     32 C         140.1225  140.6300  166.8848 C.ar    1  UNL1       -0.0003
     33 C         140.0407  141.8787  166.0578 C.ar    1  UNL1       -0.0027
     34 C         139.2400  144.5744  164.7659 C.3     1  UNL1        0.0241
     35 C         138.3801  145.1081  165.8730 C.3     1  UNL1        0.0021
@<TRIPOS>BOND
     1    21    22    1
     2    14    22    1
     3    14    10    1
     4    10    11   am
     5    11    12    2
     6    11     1    1
     7     1     2   ar
     8     2     3   ar
     9     3    23    1
    10    23    24    2
    11    23    25   am
    12    25    27    1
    13    27    34    1
    14    34    35    1
    15    27    28    1
    16    28    29   ar
    17    29    30   ar
    18    30    31   ar
    19    31    32   ar
    20    32    33   ar
    21     3     4   ar
    22     4     5   ar
    23     5     6    1
    24     6     7    1
    25     7     8    1
    26     8     9    1
    27    14    15    1
    28    15    16   ar
    29    16    17   ar
    30    17    18   ar
    31    18    19   ar
    32    19    20   ar
    33     5     1   ar
    34    20    15   ar
    35    33    28   ar
    36     9     4    1
    37    10    13    1
    38    25    26    1
@<TRIPOS>MOLECULE
*****
 35 38 0 0 0
SMALL
GASTEIGER

@<TRIPOS>ATOM
      1 C         141.9359  137.8040  158.2241 C.ar    1  UNL1        0.0690
      2 C         142.4698  137.9395  159.6192 C.ar    1  UNL1        0.0275
      3 C         141.5376  138.8283  160.3880 C.ar    1  UNL1        0.1140
      4 N         140.4276  139.2422  159.4679 N.ar    1  UNL1       -0.3223
      5 C         140.6737  138.6091  158.1305 C.ar    1  UNL1        0.0717
      6 C         139.7168  138.8475  157.0003 C.3     1  UNL1        0.1857
      7 O         138.5137  139.7190  157.2075 O.3     1  UNL1       -0.3454
      8 C         138.2675  140.3521  158.5449 C.3     1  UNL1        0.1671
      9 C         139.2244  140.1136  159.6751 C.3     1  UNL1        0.1379
     10 N         141.9000  135.7385  156.6484 N.am    1  UNL1       -0.2987
     11 C         142.5554  137.0039  157.1168 C.2     1  UNL1        0.2472
     12 O         143.8302  137.4691  156.4778 O.2     1  UNL1       -0.2701
     13 H         141.0632  135.4332  157.0677 H       1  UNL1        0.1500
     14 C         142.5195  134.9384  155.5411 C.3     1  UNL1        0.0943
     15 C         143.3088  133.7032  155.8592 C.ar    1  UNL1       -0.0045
     16 C         144.0896  133.6205  157.1373 C.ar    1  UNL1       -0.0027
     17 C         144.8789  132.3853  157.4554 C.ar    1  UNL1       -0.0003
     18 C         144.8875  131.2329  156.4954 C.ar    1  UNL1       -0.0000
     19 C         144.1068  131.3156  155.2173 C.ar    1  UNL1       -0.0003
     20 C         143.3175  132.5508  154.8992 C.ar    1  UNL1       -0.0027
     21 C         141.0325  135.9204  153.6505 C.3     1  UNL1        0.0021
     22 C         142.3496  135.3736  154.1157 C.3     1  UNL1        0.0241
     23 C         141.6888  139.2324  161.8246 C.2     1  UNL1        0.2619
     24 O         141.5990  140.6791  162.2103 O.2     1  UNL1       -0.2686
     25 N         141.9300  138.1896  162.8756 N.am    1  UNL1       -0.2975
     26 H         141.9890  137.2400  162.6225 H       1  UNL1        0.1500
     27 C         142.0812  138.5936  164.3123 C.3     1  UNL1        0.0944
     28 C         140.8672  138.7499  165.1792 C.ar    1  UNL1       -0.0045
     29 C         139.6330  137.9467  164.8933 C.ar    1  UNL1       -0.0027
     30 C         138.4190  138.1030  165.7603 C.ar    1  UNL1       -0.0003
     31 C         138.4390  139.0625  166.9131 C.ar    1  UNL1       -0.0000
     32 C         139.6732  139.8657  167.1990 C.ar    1  UNL1       -0.0003
     33 C         140.8872  139.7094  166.3320 C.ar    1  UNL1       -0.0027
     34 C         143.4465  138.8414  164.8818 C.3     1  UNL1        0.0241
     35 C         144.5352  139.3904  164.0082 C.3     1  UNL1        0.0021
@<TRIPOS>BOND
     1    21    22    1
     2    14    22    1
     3    14    10    1
     4    10    11   am
     5    11    12    2
     6    11     1    1
     7     1     2   ar
     8     2     3   ar
     9     3    23    1
    10    23    24    2
    11    23    25   am
    12    25    27    1
    13    27    34    1
    14    34    35    1
    15    27    28    1
    16    28    29   ar
    17    29    30   ar
    18    30    31   ar
    19    31    32   ar
    20    32    33   ar
    21     3     4   ar
    22     4     5   ar
    23     5     6    1
    24     6     7    1
    25     7     8    1
    26     8     9    1
    27    14    15    1
    28    15    16   ar
    29    16    17   ar
    30    17    18   ar
    31    18    19   ar
    32    19    20   ar
    33     5     1   ar
    34    20    15   ar
    35    33    28   ar
    36     9     4    1
    37    10    13    1
    38    25    26    1
@<TRIPOS>MOLECULE
*****
 35 38 0 0 0
SMALL
GASTEIGER

@<TRIPOS>ATOM
      1 C         140.2341  139.4781  160.3024 C.ar    1  UNL1        0.0690
      2 C         141.2726  138.5354  159.7706 C.ar    1  UNL1        0.0275
      3 C         141.0542  138.3905  158.2937 C.ar    1  UNL1        0.1140
      4 N         139.8807  139.2436  157.9127 N.ar    1  UNL1       -0.3223
      5 C         139.3738  139.9158  159.1542 C.ar    1  UNL1        0.0717
      6 C         138.1945  140.8396  159.0787 C.3     1  UNL1        0.1857
      7 O         137.5220  141.0911  157.7617 O.3     1  UNL1       -0.3454
      8 C         138.0289  140.4189  156.5202 C.3     1  UNL1        0.1671
      9 C         139.2082  139.4952  156.5957 C.3     1  UNL1        0.1379
     10 N         138.7430  139.8241  162.4017 N.am    1  UNL1       -0.2987
     11 C         140.0824  139.9077  161.7315 C.2     1  UNL1        0.2472
     12 O         141.2700  140.4210  162.4905 O.2     1  UNL1       -0.2701
     13 H         137.9635  139.4872  161.9036 H       1  UNL1        0.1500
     14 C         138.5913  140.2537  163.8309 C.3     1  UNL1        0.0943
     15 C         138.6048  141.7122  164.1811 C.ar    1  UNL1       -0.0045
     16 C         139.5168  142.2160  165.2602 C.ar    1  UNL1       -0.0027
     17 C         139.5303  143.6744  165.6104 C.ar    1  UNL1       -0.0003
     18 C         138.6319  144.6291  164.8815 C.ar    1  UNL1       -0.0000
     19 C         137.7199  144.1253  163.8023 C.ar    1  UNL1       -0.0003
     20 C         137.7064  142.6668  163.4521 C.ar    1  UNL1       -0.0027
     21 C         139.2701  137.9848  164.8990 C.3     1  UNL1        0.0021
     22 C         138.4261  139.2248  164.9097 C.3     1  UNL1        0.0241
     23 C         141.8666  137.5415  157.3614 C.2     1  UNL1        0.2619
     24 O         143.3382  137.7896  157.2110 O.2     1  UNL1       -0.2686
     25 N         141.2073  136.4442  156.5793 N.am    1  UNL1       -0.2975
     26 H         140.2414  136.2813  156.6780 H       1  UNL1        0.1500
     27 C         142.0198  135.5952  155.6470 C.3     1  UNL1        0.0944
     28 C         142.5535  134.2722  156.1103 C.ar    1  UNL1       -0.0045
     29 C         141.8756  133.0016  155.6909 C.ar    1  UNL1       -0.0027
     30 C         142.4093  131.6785  156.1541 C.ar    1  UNL1       -0.0003
     31 C         143.6210  131.6260  157.0368 C.ar    1  UNL1       -0.0000
     32 C         144.2989  132.8966  157.4562 C.ar    1  UNL1       -0.0003
     33 C         143.7652  134.2197  156.9930 C.ar    1  UNL1       -0.0027
     34 C         142.2984  136.0694  154.2515 C.3     1  UNL1        0.0241
     35 C         141.4695  135.5638  153.1082 C.3     1  UNL1        0.0021
@<TRIPOS>BOND
     1    21    22    1
     2    14    22    1
     3    14    10    1
     4    10    11   am
     5    11    12    2
     6    11     1    1
     7     1     2   ar
     8     2     3   ar
     9     3    23    1
    10    23    24    2
    11    23    25   am
    12    25    27    1
    13    27    34    1
    14    34    35    1
    15    27    28    1
    16    28    29   ar
    17    29    30   ar
    18    30    31   ar
    19    31    32   ar
    20    32    33   ar
    21     3     4   ar
    22     4     5   ar
    23     5     6    1
    24     6     7    1
    25     7     8    1
    26     8     9    1
    27    14    15    1
    28    15    16   ar
    29    16    17   ar
    30    17    18   ar
    31    18    19   ar
    32    19    20   ar
    33     5     1   ar
    34    20    15   ar
    35    33    28   ar
    36     9     4    1
    37    10    13    1
    38    25    26    1
@<TRIPOS>MOLECULE
*****
 35 38 0 0 0
SMALL
GASTEIGER

@<TRIPOS>ATOM
      1 C         142.2360  137.7105  158.0476 C.ar    1  UNL1        0.0690
      2 C         142.9950  137.9992  159.3087 C.ar    1  UNL1        0.0275
      3 C         142.1715  138.9371  160.1408 C.ar    1  UNL1        0.1140
      4 N         140.9036  139.2280  159.3939 N.ar    1  UNL1       -0.3223
      5 C         140.9435  138.4700  158.1002 C.ar    1  UNL1        0.0717
      6 C         139.7977  138.5691  157.1372 C.3     1  UNL1        0.1857
      7 O         138.6121  139.4263  157.4680 O.3     1  UNL1       -0.3454
      8 C         138.5723  140.1844  158.7618 C.3     1  UNL1        0.1671
      9 C         139.7180  140.0852  159.7247 C.3     1  UNL1        0.1379
     10 N         141.8837  135.6087  156.5614 N.am    1  UNL1       -0.2987
     11 C         142.6898  136.8190  156.9299 C.2     1  UNL1        0.2472
     12 O         143.9496  137.1374  156.1807 O.2     1  UNL1       -0.2701
     13 H         141.0568  135.3996  157.0531 H       1  UNL1        0.1500
     14 C         142.3375  134.7171  155.4438 C.3     1  UNL1        0.0943
     15 C         143.1945  133.5219  155.7386 C.ar    1  UNL1       -0.0045
     16 C         143.2514  132.3815  154.7659 C.ar    1  UNL1       -0.0027
     17 C         144.1085  131.1863  155.0608 C.ar    1  UNL1       -0.0003
     18 C         144.9086  131.1315  156.3284 C.ar    1  UNL1       -0.0000
     19 C         144.8517  132.2720  157.3011 C.ar    1  UNL1       -0.0003
     20 C         143.9946  133.4672  157.0062 C.ar    1  UNL1       -0.0027
     21 C         140.8729  136.0450  153.7582 C.3     1  UNL1        0.0021
     22 C         141.9342  135.0208  154.0313 C.3     1  UNL1        0.0241
     23 C         142.5496  139.4874  161.4840 C.2     1  UNL1        0.2619
     24 O         141.5432  139.5091  162.5960 O.2     1  UNL1       -0.2686
     25 N         143.9342  140.0162  161.7153 N.am    1  UNL1       -0.2975
     26 H         144.5948  140.0020  160.9854 H       1  UNL1        0.1500
     27 C         144.3123  140.5666  163.0585 C.3     1  UNL1        0.0944
     28 C         144.1057  142.0218  163.3579 C.ar    1  UNL1       -0.0045
     29 C         144.5425  142.5853  164.6776 C.ar    1  UNL1       -0.0027
     30 C         144.3359  144.0405  164.9771 C.ar    1  UNL1       -0.0003
     31 C         143.6925  144.9322  163.9569 C.ar    1  UNL1       -0.0000
     32 C         143.2556  144.3687  162.6372 C.ar    1  UNL1       -0.0003
     33 C         143.4622  142.9135  162.3377 C.ar    1  UNL1       -0.0027
     34 C         144.8969  139.6617  164.1021 C.3     1  UNL1        0.0241
     35 C         144.0031  139.0086  165.1144 C.3     1  UNL1        0.0021
@<TRIPOS>BOND
     1    21    22    1
     2    14    22    1
     3    14    10    1
     4    10    11   am
     5    11    12    2
     6    11     1    1
     7     1     2   ar
     8     2     3   ar
     9     3    23    1
    10    23    24    2
    11    23    25   am
    12    25    27    1
    13    27    34    1
    14    34    35    1
    15    27    28    1
    16    28    29   ar
    17    29    30   ar
    18    30    31   ar
    19    31    32   ar
    20    32    33   ar
    21     3     4   ar
    22     4     5   ar
    23     5     6    1
    24     6     7    1
    25     7     8    1
    26     8     9    1
    27    14    15    1
    28    15    16   ar
    29    16    17   ar
    30    17    18   ar
    31    18    19   ar
    32    19    20   ar
    33     5     1   ar
    34    20    15   ar
    35    33    28   ar
    36     9     4    1
    37    10    13    1
    38    25    26    1
@<TRIPOS>MOLECULE
*****
 35 38 0 0 0
SMALL
GASTEIGER

@<TRIPOS>ATOM
      1 C         141.0894  138.3236  158.3647 C.ar    1  UNL1        0.0690
      2 C         141.3423  138.5121  159.8312 C.ar    1  UNL1        0.0275
      3 C         140.2868  139.4321  160.3691 C.ar    1  UNL1        0.1140
      4 N         139.3815  139.8123  159.2350 N.ar    1  UNL1       -0.3223
      5 C         139.8776  139.1271  157.9963 C.ar    1  UNL1        0.0717
      6 C         139.1617  139.3235  156.6929 C.3     1  UNL1        0.1857
      7 O         137.9498  140.2050  156.6282 O.3     1  UNL1       -0.3454
      8 C         137.4537  140.8901  157.8670 C.3     1  UNL1        0.1671
      9 C         138.1696  140.6937  159.1704 C.3     1  UNL1        0.1379
     10 N         141.2525  136.3734  156.6558 N.am    1  UNL1       -0.2987
     11 C         141.9051  137.4797  157.4307 C.2     1  UNL1        0.2472
     12 O         143.3733  137.7420  157.2714 O.2     1  UNL1       -0.2701
     13 H         140.2888  136.2012  156.7603 H       1  UNL1        0.1500
     14 C         142.0682  135.5295  155.7217 C.3     1  UNL1        0.0943
     15 C         142.6191  134.2141  156.1867 C.ar    1  UNL1       -0.0045
     16 C         141.9589  132.9341  155.7673 C.ar    1  UNL1       -0.0027
     17 C         142.5098  131.6187  156.2323 C.ar    1  UNL1       -0.0003
     18 C         143.7207  131.5833  157.1168 C.ar    1  UNL1       -0.0000
     19 C         144.3809  132.8632  157.5362 C.ar    1  UNL1       -0.0003
     20 C         143.8300  134.1786  157.0712 C.ar    1  UNL1       -0.0027
     21 C         141.2940  136.7974  153.5904 C.3     1  UNL1        0.0021
     22 C         142.3331  136.0011  154.3227 C.3     1  UNL1        0.0241
     23 C         140.1589  139.8914  161.7913 C.2     1  UNL1        0.2619
     24 O         141.3477  140.4644  162.5042 O.2     1  UNL1       -0.2686
     25 N         138.8421  139.7777  162.5007 N.am    1  UNL1       -0.2975
     26 H         138.0618  139.4016  162.0328 H       1  UNL1        0.1500
     27 C         138.7142  140.2370  163.9229 C.3     1  UNL1        0.0944
     28 C         138.6867  141.7033  164.2379 C.ar    1  UNL1       -0.0045
     29 C         139.6328  142.2697  165.2548 C.ar    1  UNL1       -0.0027
     30 C         139.6053  143.7360  165.5698 C.ar    1  UNL1       -0.0003
     31 C         138.6318  144.6358  164.8680 C.ar    1  UNL1       -0.0000
     32 C         137.6857  144.0693  163.8511 C.ar    1  UNL1       -0.0003
     33 C         137.7132  142.6031  163.5360 C.ar    1  UNL1       -0.0027
     34 C         138.6139  139.2299  165.0300 C.3     1  UNL1        0.0241
     35 C         138.9314  137.7884  164.7636 C.3     1  UNL1        0.0021
@<TRIPOS>BOND
     1    21    22    1
     2    14    22    1
     3    14    10    1
     4    10    11   am
     5    11    12    2
     6    11     1    1
     7     1     2   ar
     8     2     3   ar
     9     3    23    1
    10    23    24    2
    11    23    25   am
    12    25    27    1
    13    27    34    1
    14    34    35    1
    15    27    28    1
    16    28    29   ar
    17    29    30   ar
    18    30    31   ar
    19    31    32   ar
    20    32    33   ar
    21     3     4   ar
    22     4     5   ar
    23     5     6    1
    24     6     7    1
    25     7     8    1
    26     8     9    1
    27    14    15    1
    28    15    16   ar
    29    16    17   ar
    30    17    18   ar
    31    18    19   ar
    32    19    20   ar
    33     5     1   ar
    34    20    15   ar
    35    33    28   ar
    36     9     4    1
    37    10    13    1
    38    25    26    1
@<TRIPOS>MOLECULE
*****
 35 38 0 0 0
SMALL
GASTEIGER

@<TRIPOS>ATOM
      1 C         142.9674  138.4253  158.2058 C.ar    1  UNL1        0.0690
      2 C         142.5509  138.1566  159.6215 C.ar    1  UNL1        0.0275
      3 C         142.8026  139.3996  160.4225 C.ar    1  UNL1        0.1140
      4 N         143.3747  140.4365  159.5019 N.ar    1  UNL1       -0.3223
      5 C         143.4766  139.8343  158.1319 C.ar    1  UNL1        0.0717
      6 C         144.0198  140.6468  156.9940 C.3     1  UNL1        0.1857
      7 O         144.4611  142.0614  157.2262 O.3     1  UNL1       -0.3454
      8 C         144.3592  142.6636  158.5963 C.3     1  UNL1        0.1671
      9 C         143.8160  141.8511  159.7341 C.3     1  UNL1        0.1379
     10 N         141.6210  136.6934  156.8136 N.am    1  UNL1       -0.2987
     11 C         142.8887  137.4553  157.0644 C.2     1  UNL1        0.2472
     12 O         144.0774  137.2470  156.1737 O.2     1  UNL1       -0.2701
     13 H         140.8408  136.8301  157.3982 H       1  UNL1        0.1500
     14 C         141.5423  135.7234  155.6722 C.3     1  UNL1        0.0943
     15 C         141.9259  134.2882  155.8797 C.ar    1  UNL1       -0.0045
     16 C         141.2327  133.2070  155.1048 C.ar    1  UNL1       -0.0027
     17 C         141.6163  131.7718  155.3124 C.ar    1  UNL1       -0.0003
     18 C         142.6931  131.4179  156.2949 C.ar    1  UNL1       -0.0000
     19 C         143.3862  132.4991  157.0698 C.ar    1  UNL1       -0.0003
     20 C         143.0026  133.9343  156.8622 C.ar    1  UNL1       -0.0027
     21 C         142.0558  136.8125  153.3700 C.3     1  UNL1        0.0021
     22 C         141.0800  136.1886  154.3232 C.3     1  UNL1        0.0241
     23 C         142.5300  139.5749  161.8871 C.2     1  UNL1        0.2619
     24 O         141.8801  140.8322  162.3838 O.2     1  UNL1       -0.2686
     25 N         142.9074  138.4928  162.8551 N.am    1  UNL1       -0.2975
     26 H         143.3339  137.6676  162.5291 H       1  UNL1        0.1500
     27 C         142.6348  138.6682  164.3196 C.3     1  UNL1        0.0944
     28 C         141.2227  138.6651  164.8254 C.ar    1  UNL1       -0.0045
     29 C         140.7052  139.8327  165.6120 C.ar    1  UNL1       -0.0027
     30 C         139.2930  139.8296  166.1177 C.ar    1  UNL1       -0.0003
     31 C         138.3983  138.6588  165.8368 C.ar    1  UNL1       -0.0000
     32 C         138.9158  137.4912  165.0502 C.ar    1  UNL1       -0.0003
     33 C         140.3280  137.4943  164.5445 C.ar    1  UNL1       -0.0027
     34 C         143.7745  138.8466  165.2784 C.3     1  UNL1        0.0241
     35 C         143.8324  138.0293  166.5349 C.3     1  UNL1        0.0021
@<TRIPOS>BOND
     1    21    22    1
     2    14    22    1
     3    14    10    1
     4    10    11   am
     5    11    12    2
     6    11     1    1
     7     1     2   ar
     8     2     3   ar
     9     3    23    1
    10    23    24    2
    11    23    25   am
    12    25    27    1
    13    27    34    1
    14    34    35    1
    15    27    28    1
    16    28    29   ar
    17    29    30   ar
    18    30    31   ar
    19    31    32   ar
    20    32    33   ar
    21     3     4   ar
    22     4     5   ar
    23     5     6    1
    24     6     7    1
    25     7     8    1
    26     8     9    1
    27    14    15    1
    28    15    16   ar
    29    16    17   ar
    30    17    18   ar
    31    18    19   ar
    32    19    20   ar
    33     5     1   ar
    34    20    15   ar
    35    33    28   ar
    36     9     4    1
    37    10    13    1
    38    25    26    1
@<TRIPOS>MOLECULE
*****
 35 38 0 0 0
SMALL
GASTEIGER

@<TRIPOS>ATOM
      1 C         141.6422  138.7782  160.2144 C.ar    1  UNL1        0.0690
      2 C         142.5242  137.8028  159.4929 C.ar    1  UNL1        0.0275
      3 C         142.0530  137.7153  158.0715 C.ar    1  UNL1        0.1140
      4 N         140.8798  138.6367  157.9145 N.ar    1  UNL1       -0.3223
      5 C         140.6259  139.2937  159.2389 C.ar    1  UNL1        0.0717
      6 C         139.5022  140.2763  159.3855 C.3     1  UNL1        0.1857
      7 O         138.6323  140.6020  158.2077 O.3     1  UNL1       -0.3454
      8 C         138.8862  139.9451  156.8833 C.3     1  UNL1        0.1671
      9 C         140.0100  138.9624  156.7367 C.3     1  UNL1        0.1379
     10 N         142.0683  138.1309  162.6942 N.am    1  UNL1       -0.2987
     11 C         141.7564  139.1696  161.6579 C.2     1  UNL1        0.2472
     12 O         141.5587  140.5996  162.0652 O.2     1  UNL1       -0.2701
     13 H         142.1981  137.1923  162.4269 H       1  UNL1        0.1500
     14 C         142.1825  138.5223  164.1378 C.3     1  UNL1        0.0943
     15 C         140.9462  138.6776  164.9728 C.ar    1  UNL1       -0.0045
     16 C         140.9008  139.7090  166.0610 C.ar    1  UNL1       -0.0027
     17 C         139.6645  139.8643  166.8961 C.ar    1  UNL1       -0.0003
     18 C         138.4735  138.9882  166.6429 C.ar    1  UNL1       -0.0000
     19 C         138.5189  137.9568  165.5547 C.ar    1  UNL1       -0.0003
     20 C         139.7552  137.8015  164.7196 C.ar    1  UNL1       -0.0027
     21 C         144.4720  139.7502  164.1259 C.3     1  UNL1        0.0021
     22 C         143.5331  138.7583  164.7462 C.3     1  UNL1        0.0241
     23 C         142.6502  136.8571  156.9959 C.2     1  UNL1        0.2619
     24 O         143.9836  137.2114  156.4075 O.2     1  UNL1       -0.2686
     25 N         141.9138  135.6444  156.5087 N.am    1  UNL1       -0.2975
     26 H         141.0385  135.4118  156.8949 H       1  UNL1        0.1500
     27 C         142.5109  134.7862  155.4331 C.3     1  UNL1        0.0944
     28 C         143.3124  133.5727  155.8004 C.ar    1  UNL1       -0.0045
     29 C         144.0480  133.5269  157.1069 C.ar    1  UNL1       -0.0027
     30 C         144.8495  132.3134  157.4742 C.ar    1  UNL1       -0.0003
     31 C         144.9154  131.1456  156.5350 C.ar    1  UNL1       -0.0000
     32 C         144.1798  131.1914  155.2286 C.ar    1  UNL1       -0.0003
     33 C         143.3783  132.4049  154.8613 C.ar    1  UNL1       -0.0027
     34 C         142.3065  135.1416  153.9903 C.3     1  UNL1        0.0241
     35 C         141.8481  136.5197  153.6150 C.3     1  UNL1        0.0021
@<TRIPOS>BOND
     1    21    22    1
     2    14    22    1
     3    14    10    1
     4    10    11   am
     5    11    12    2
     6    11     1    1
     7     1     2   ar
     8     2     3   ar
     9     3    23    1
    10    23    24    2
    11    23    25   am
    12    25    27    1
    13    27    34    1
    14    34    35    1
    15    27    28    1
    16    28    29   ar
    17    29    30   ar
    18    30    31   ar
    19    31    32   ar
    20    32    33   ar
    21     3     4   ar
    22     4     5   ar
    23     5     6    1
    24     6     7    1
    25     7     8    1
    26     8     9    1
    27    14    15    1
    28    15    16   ar
    29    16    17   ar
    30    17    18   ar
    31    18    19   ar
    32    19    20   ar
    33     5     1   ar
    34    20    15   ar
    35    33    28   ar
    36     9     4    1
    37    10    13    1
    38    25    26    1
