@<TRIPOS>MOLECULE
*****
 30 33 0 0 0
SMALL
GASTEIGER

@<TRIPOS>ATOM
      1 C         140.2234  141.5754  164.8883 C.ar    1  UNL1        0.1101
      2 C         140.6159  142.4934  163.7688 C.ar    1  UNL1        0.0891
      3 N         140.3809  142.0833  162.3452 N.ar    1  UNL1       -0.2900
      4 C         139.7533  140.7552  162.0411 C.ar    1  UNL1        0.1507
      5 N         139.5183  140.3452  160.6176 N.ar    1  UNL1       -0.2263
      6 C         138.8908  139.0172  160.3135 C.ar    1  UNL1        0.1005
      7 C         138.4982  138.0992  161.4330 C.ar    1  UNL1        0.0209
      8 C         138.7333  138.5093  162.8566 C.ar    1  UNL1        0.0078
      9 C         139.3608  139.8373  163.1606 C.ar    1  UNL1        0.0736
     10 C         139.5959  140.2474  164.5842 C.ar    1  UNL1        0.2043
     11 O         139.2034  139.3294  165.7037 O.2     1  UNL1       -0.2863
     12 C         140.7734  143.0013  161.2257 C.ar    1  UNL1        0.0654
     13 C         142.0465  142.7608  160.4699 C.ar    1  UNL1        0.0184
     14 C         142.4390  143.6787  159.3504 C.ar    1  UNL1        0.0129
     15 C         141.5584  144.8372  158.9867 C.ar    1  UNL1        0.0578
     16 CL        141.9509  145.7552  157.8672 Cl      1  UNL1       -0.0822
     17 C         140.2852  145.0778  159.7426 C.ar    1  UNL1        0.0129
     18 C         139.8927  144.1599  160.8621 C.ar    1  UNL1        0.0184
     19 O         140.0666  143.3586  166.7713 O.2     1  UNL1       -0.2696
     20 C         140.4585  141.9856  166.3119 C.2     1  UNL1        0.2541
     21 N         141.0854  141.0226  167.2761 N.am    1  UNL1       -0.2789
     22 H         141.3426  140.1214  166.9745 H       1  UNL1        0.1552
     23 C         141.3205  141.4326  168.6996 C.ar    1  UNL1        0.0750
     24 C         140.3220  141.0710  169.7590 C.ar    1  UNL1        0.0910
     25 CL        139.0884  140.2993  169.3947 Cl      1  UNL1       -0.0793
     26 C         140.5570  141.4811  171.1825 C.ar    1  UNL1        0.1115
     27 N         141.7907  142.2528  171.5468 N.ar    1  UNL1       -0.2405
     28 C         142.7892  142.6144  170.4875 C.ar    1  UNL1        0.1115
     29 C         142.5541  142.2043  169.0638 C.ar    1  UNL1        0.0910
     30 CL        143.5526  142.5660  168.0045 Cl      1  UNL1       -0.0793
@<TRIPOS>BOND
     1    19    20    2
     2    20    21   am
     3    21    23    1
     4    23    24   ar
     5    24    25    1
     6    24    26   ar
     7    26    27   ar
     8    27    28   ar
     9    28    29   ar
    10    29    30    1
    11    20     1    1
    12     1     2   ar
    13     2     3   ar
    14     3    12    1
    15    12    13   ar
    16    13    14   ar
    17    14    15   ar
    18    15    16    1
    19    15    17   ar
    20    17    18   ar
    21     3     4   ar
    22     4     5   ar
    23     5     6   ar
    24     6     7   ar
    25     7     8   ar
    26     8     9   ar
    27     9    10   ar
    28    10    11    2
    29    29    23   ar
    30    10     1   ar
    31    18    12   ar
    32     9     4   ar
    33    21    22    1
@<TRIPOS>MOLECULE
*****
 30 33 0 0 0
SMALL
GASTEIGER

@<TRIPOS>ATOM
      1 C         141.0747  142.6258  161.0871 C.ar    1  UNL1        0.1101
      2 C         140.2451  141.7800  162.0071 C.ar    1  UNL1        0.0891
      3 N         140.9076  140.9639  163.0772 N.ar    1  UNL1       -0.2900
      4 C         142.3998  140.9937  163.2274 C.ar    1  UNL1        0.1507
      5 N         143.0623  140.1777  164.2975 N.ar    1  UNL1       -0.2263
      6 C         144.5544  140.2075  164.4477 C.ar    1  UNL1        0.1005
      7 C         145.3841  141.0534  163.5277 C.ar    1  UNL1        0.0209
      8 C         144.7216  141.8694  162.4576 C.ar    1  UNL1        0.0078
      9 C         143.2294  141.8396  162.3075 C.ar    1  UNL1        0.0736
     10 C         142.5668  142.6556  161.2373 C.ar    1  UNL1        0.2043
     11 O         143.3965  143.5014  160.3174 O.2     1  UNL1       -0.2863
     12 C         140.0779  140.1181  163.9971 C.ar    1  UNL1        0.0654
     13 C         139.8676  138.6643  163.6936 C.ar    1  UNL1        0.0184
     14 C         139.0379  137.8185  164.6135 C.ar    1  UNL1        0.0129
     15 C         138.4187  138.4265  165.8370 C.ar    1  UNL1        0.0578
     16 CL        137.5890  137.5806  166.7569 Cl      1  UNL1       -0.0822
     17 C         138.6291  139.8803  166.1406 C.ar    1  UNL1        0.0129
     18 C         139.4587  140.7262  165.2206 C.ar    1  UNL1        0.0184
     19 O         139.3474  144.4336  160.3812 O.2     1  UNL1       -0.2696
     20 C         140.4121  143.4418  160.0170 C.2     1  UNL1        0.2541
     21 N         140.8143  143.2660  158.5827 N.am    1  UNL1       -0.2789
     22 H         141.5131  142.6150  158.3436 H       1  UNL1        0.1552
     23 C         140.1518  144.0820  157.5125 C.ar    1  UNL1        0.0750
     24 C         138.9358  143.5535  156.8111 C.ar    1  UNL1        0.0910
     25 CL        138.3823  142.2090  157.1799 Cl      1  UNL1       -0.0793
     26 C         138.2733  144.3695  155.7410 C.ar    1  UNL1        0.1115
     27 N         138.8268  145.7140  155.3722 N.ar    1  UNL1       -0.2405
     28 C         140.0428  146.2425  156.0736 C.ar    1  UNL1        0.1115
     29 C         140.7053  145.4264  157.1438 C.ar    1  UNL1        0.0910
     30 CL        141.9214  145.9549  157.8452 Cl      1  UNL1       -0.0793
@<TRIPOS>BOND
     1    19    20    2
     2    20    21   am
     3    21    23    1
     4    23    24   ar
     5    24    25    1
     6    24    26   ar
     7    26    27   ar
     8    27    28   ar
     9    28    29   ar
    10    29    30    1
    11    20     1    1
    12     1     2   ar
    13     2     3   ar
    14     3    12    1
    15    12    13   ar
    16    13    14   ar
    17    14    15   ar
    18    15    16    1
    19    15    17   ar
    20    17    18   ar
    21     3     4   ar
    22     4     5   ar
    23     5     6   ar
    24     6     7   ar
    25     7     8   ar
    26     8     9   ar
    27     9    10   ar
    28    10    11    2
    29    29    23   ar
    30    10     1   ar
    31    18    12   ar
    32     9     4   ar
    33    21    22    1
@<TRIPOS>MOLECULE
*****
 30 33 0 0 0
SMALL
GASTEIGER

@<TRIPOS>ATOM
      1 C         141.0726  142.6313  161.0743 C.ar    1  UNL1        0.1101
      2 C         140.2442  141.7870  161.9967 C.ar    1  UNL1        0.0891
      3 N         140.9082  140.9709  163.0658 N.ar    1  UNL1       -0.2900
      4 C         142.4008  140.9991  163.2125 C.ar    1  UNL1        0.1507
      5 N         143.0649  140.1830  164.2816 N.ar    1  UNL1       -0.2263
      6 C         144.5574  140.2112  164.4283 C.ar    1  UNL1        0.1005
      7 C         145.3859  141.0555  163.5058 C.ar    1  UNL1        0.0209
      8 C         144.7218  141.8716  162.4368 C.ar    1  UNL1        0.0078
      9 C         143.2293  141.8434  162.2901 C.ar    1  UNL1        0.0736
     10 C         142.5652  142.6595  161.2210 C.ar    1  UNL1        0.2043
     11 O         143.3936  143.5038  160.2986 O.2     1  UNL1       -0.2863
     12 C         140.0798  140.1266  163.9882 C.ar    1  UNL1        0.0654
     13 C         139.4616  140.7368  165.2111 C.ar    1  UNL1        0.0184
     14 C         138.6331  139.8925  166.1335 C.ar    1  UNL1        0.0129
     15 C         138.4229  138.4381  165.8330 C.ar    1  UNL1        0.0578
     16 CL        137.5944  137.5938  166.7554 Cl      1  UNL1       -0.0822
     17 C         139.0411  137.8278  164.6101 C.ar    1  UNL1        0.0129
     18 C         139.8695  138.6721  163.6877 C.ar    1  UNL1        0.0184
     19 O         139.3429  144.4377  160.3708 O.2     1  UNL1       -0.2696
     20 C         140.4085  143.4474  160.0052 C.2     1  UNL1        0.2541
     21 N         140.8100  143.2731  158.5705 N.am    1  UNL1       -0.2789
     22 H         141.5094  142.6231  158.3305 H       1  UNL1        0.1552
     23 C         140.1459  144.0892  157.5014 C.ar    1  UNL1        0.0750
     24 C         140.7002  145.4327  157.1303 C.ar    1  UNL1        0.0910
     25 CL        141.9186  145.9602  157.8283 Cl      1  UNL1       -0.0793
     26 C         140.0362  146.2488  156.0612 C.ar    1  UNL1        0.1115
     27 N         138.8177  145.7213  155.3631 N.ar    1  UNL1       -0.2405
     28 C         138.2634  144.3778  155.7341 C.ar    1  UNL1        0.1115
     29 C         138.9276  143.5617  156.8033 C.ar    1  UNL1        0.0910
     30 CL        138.3733  142.2182  157.1744 Cl      1  UNL1       -0.0793
@<TRIPOS>BOND
     1    19    20    2
     2    20    21   am
     3    21    23    1
     4    23    24   ar
     5    24    25    1
     6    24    26   ar
     7    26    27   ar
     8    27    28   ar
     9    28    29   ar
    10    29    30    1
    11    20     1    1
    12     1     2   ar
    13     2     3   ar
    14     3    12    1
    15    12    13   ar
    16    13    14   ar
    17    14    15   ar
    18    15    16    1
    19    15    17   ar
    20    17    18   ar
    21     3     4   ar
    22     4     5   ar
    23     5     6   ar
    24     6     7   ar
    25     7     8   ar
    26     8     9   ar
    27     9    10   ar
    28    10    11    2
    29    29    23   ar
    30    10     1   ar
    31    18    12   ar
    32     9     4   ar
    33    21    22    1
@<TRIPOS>MOLECULE
*****
 30 33 0 0 0
SMALL
GASTEIGER

@<TRIPOS>ATOM
      1 C         143.3344  142.4833  159.9538 C.ar    1  UNL1        0.1101
      2 C         143.3189  141.7800  161.2786 C.ar    1  UNL1        0.0891
      3 N         142.4369  142.2812  162.3835 N.ar    1  UNL1       -0.2900
      4 C         141.5704  143.4857  162.1636 C.ar    1  UNL1        0.1507
      5 N         140.6884  143.9869  163.2685 N.ar    1  UNL1       -0.2263
      6 C         139.8219  145.1914  163.0485 C.ar    1  UNL1        0.1005
      7 C         139.8374  145.8947  161.7237 C.ar    1  UNL1        0.0209
      8 C         140.7194  145.3935  160.6188 C.ar    1  UNL1        0.0078
      9 C         141.5859  144.1890  160.8387 C.ar    1  UNL1        0.0736
     10 C         142.4680  143.6877  159.7338 C.ar    1  UNL1        0.2043
     11 O         142.4835  144.3910  158.4090 O.2     1  UNL1       -0.2863
     12 C         142.4214  141.5780  163.7083 C.ar    1  UNL1        0.0654
     13 C         143.1786  142.1499  164.8700 C.ar    1  UNL1        0.0184
     14 C         143.1631  141.4467  166.1948 C.ar    1  UNL1        0.0129
     15 C         142.3904  140.1714  166.3580 C.ar    1  UNL1        0.0578
     16 CL        142.3749  139.4682  167.6828 Cl      1  UNL1       -0.0822
     17 C         141.6332  139.5994  165.1963 C.ar    1  UNL1        0.0129
     18 C         141.6487  140.3026  163.8715 C.ar    1  UNL1        0.0184
     19 O         144.4862  140.5128  158.7124 O.2     1  UNL1       -0.2696
     20 C         144.2165  141.9820  158.8488 C.2     1  UNL1        0.2541
     21 N         144.8289  142.9500  157.8804 N.am    1  UNL1       -0.2789
     22 H         144.6519  143.9144  157.9699 H       1  UNL1        0.1552
     23 C         145.7109  142.4488  156.7755 C.ar    1  UNL1        0.0750
     24 C         145.1044  141.7917  155.5712 C.ar    1  UNL1        0.0910
     25 CL        143.6159  141.6357  155.4718 Cl      1  UNL1       -0.0793
     26 C         145.9865  141.2905  154.4664 C.ar    1  UNL1        0.1115
     27 N         147.4751  141.4465  154.5657 N.ar    1  UNL1       -0.2405
     28 C         148.0816  142.1036  155.7700 C.ar    1  UNL1        0.1115
     29 C         147.1995  142.6048  156.8749 C.ar    1  UNL1        0.0910
     30 CL        147.8060  143.2620  158.0792 Cl      1  UNL1       -0.0793
@<TRIPOS>BOND
     1    19    20    2
     2    20    21   am
     3    21    23    1
     4    23    24   ar
     5    24    25    1
     6    24    26   ar
     7    26    27   ar
     8    27    28   ar
     9    28    29   ar
    10    29    30    1
    11    20     1    1
    12     1     2   ar
    13     2     3   ar
    14     3    12    1
    15    12    13   ar
    16    13    14   ar
    17    14    15   ar
    18    15    16    1
    19    15    17   ar
    20    17    18   ar
    21     3     4   ar
    22     4     5   ar
    23     5     6   ar
    24     6     7   ar
    25     7     8   ar
    26     8     9   ar
    27     9    10   ar
    28    10    11    2
    29    29    23   ar
    30    10     1   ar
    31    18    12   ar
    32     9     4   ar
    33    21    22    1
@<TRIPOS>MOLECULE
*****
 30 33 0 0 0
SMALL
GASTEIGER

@<TRIPOS>ATOM
      1 C         141.6304  141.3304  164.7357 C.ar    1  UNL1        0.1101
      2 C         141.2285  142.2485  163.6196 C.ar    1  UNL1        0.0891
      3 N         141.5884  141.9098  162.2034 N.ar    1  UNL1       -0.2900
      4 C         142.3502  140.6530  161.9032 C.ar    1  UNL1        0.1507
      5 N         142.7100  140.3143  160.4870 N.ar    1  UNL1       -0.2263
      6 C         143.4718  139.0574  160.1868 C.ar    1  UNL1        0.1005
      7 C         143.8736  138.1393  161.3029 C.ar    1  UNL1        0.0209
      8 C         143.5138  138.4781  162.7191 C.ar    1  UNL1        0.0078
      9 C         142.7520  139.7349  163.0193 C.ar    1  UNL1        0.0736
     10 C         142.3921  140.0736  164.4356 C.ar    1  UNL1        0.2043
     11 O         142.7940  139.1555  165.5516 O.2     1  UNL1       -0.2863
     12 C         141.1865  142.8279  161.0874 C.ar    1  UNL1        0.0654
     13 C         139.9764  142.5155  160.2581 C.ar    1  UNL1        0.0184
     14 C         139.5745  143.4336  159.1420 C.ar    1  UNL1        0.0129
     15 C         140.3828  144.6641  158.8552 C.ar    1  UNL1        0.0578
     16 CL        139.9809  145.5822  157.7392 Cl      1  UNL1       -0.0822
     17 C         141.5930  144.9767  159.6846 C.ar    1  UNL1        0.0129
     18 C         141.9949  144.0586  160.8006 C.ar    1  UNL1        0.0184
     19 O         140.3725  142.8359  166.4391 O.2     1  UNL1       -0.2696
     20 C         141.2705  141.6692  166.1520 C.2     1  UNL1        0.2541
     21 N         141.8086  140.8412  167.2811 N.am    1  UNL1       -0.2789
     22 H         142.3980  140.0755  167.0927 H       1  UNL1        0.1552
     23 C         141.4487  141.1800  168.6973 C.ar    1  UNL1        0.0750
     24 C         140.1425  140.7162  169.2707 C.ar    1  UNL1        0.0910
     25 CL        139.1962  139.9137  168.4279 Cl      1  UNL1       -0.0793
     26 C         139.7826  141.0549  170.6869 C.ar    1  UNL1        0.1115
     27 N         140.7290  141.8574  171.5299 N.ar    1  UNL1       -0.2405
     28 C         142.0352  142.3212  170.9565 C.ar    1  UNL1        0.1115
     29 C         142.3950  141.9824  169.5402 C.ar    1  UNL1        0.0910
     30 CL        143.7012  142.4462  168.9668 Cl      1  UNL1       -0.0793
@<TRIPOS>BOND
     1    19    20    2
     2    20    21   am
     3    21    23    1
     4    23    24   ar
     5    24    25    1
     6    24    26   ar
     7    26    27   ar
     8    27    28   ar
     9    28    29   ar
    10    29    30    1
    11    20     1    1
    12     1     2   ar
    13     2     3   ar
    14     3    12    1
    15    12    13   ar
    16    13    14   ar
    17    14    15   ar
    18    15    16    1
    19    15    17   ar
    20    17    18   ar
    21     3     4   ar
    22     4     5   ar
    23     5     6   ar
    24     6     7   ar
    25     7     8   ar
    26     8     9   ar
    27     9    10   ar
    28    10    11    2
    29    29    23   ar
    30    10     1   ar
    31    18    12   ar
    32     9     4   ar
    33    21    22    1
@<TRIPOS>MOLECULE
*****
 30 33 0 0 0
SMALL
GASTEIGER

@<TRIPOS>ATOM
      1 C         141.2853  141.8282  162.2141 C.ar    1  UNL1        0.1101
      2 C         141.5722  142.2613  163.6213 C.ar    1  UNL1        0.0891
      3 N         141.1156  141.4169  164.7738 N.ar    1  UNL1       -0.2900
      4 C         140.3721  140.1392  164.5192 C.ar    1  UNL1        0.1507
      5 N         139.9154  139.2948  165.6718 N.ar    1  UNL1       -0.2263
      6 C         139.1719  138.0172  165.4172 C.ar    1  UNL1        0.1005
      7 C         138.8850  137.5840  164.0100 C.ar    1  UNL1        0.0209
      8 C         139.3416  138.4284  162.8575 C.ar    1  UNL1        0.0078
      9 C         140.0852  139.7060  163.1121 C.ar    1  UNL1        0.0736
     10 C         140.5418  140.5506  161.9595 C.ar    1  UNL1        0.2043
     11 O         140.2549  140.1174  160.5524 O.2     1  UNL1       -0.2863
     12 C         141.4025  141.8501  166.1810 C.ar    1  UNL1        0.0654
     13 C         142.7798  141.6828  166.7511 C.ar    1  UNL1        0.0184
     14 C         143.0667  142.1160  168.1583 C.ar    1  UNL1        0.0129
     15 C         141.9763  142.7164  168.9953 C.ar    1  UNL1        0.0578
     16 CL        142.2632  143.1496  170.4024 Cl      1  UNL1       -0.0822
     17 C         140.5989  142.8837  168.4251 C.ar    1  UNL1        0.0129
     18 C         140.3120  142.4505  167.0179 C.ar    1  UNL1        0.0184
     19 O         143.0369  143.4247  161.1495 O.2     1  UNL1       -0.2696
     20 C         141.7420  142.6727  161.0616 C.2     1  UNL1        0.2541
     21 N         140.9037  142.7651  159.8211 N.am    1  UNL1       -0.2789
     22 H         140.0539  142.2715  159.7634 H       1  UNL1        0.1552
     23 C         141.3603  143.6096  158.6686 C.ar    1  UNL1        0.0750
     24 C         142.1285  142.9870  157.5406 C.ar    1  UNL1        0.0910
     25 CL        142.4401  141.5200  157.5652 Cl      1  UNL1       -0.0793
     26 C         142.5851  143.8314  156.3881 C.ar    1  UNL1        0.1115
     27 N         142.2735  145.2986  156.3635 N.ar    1  UNL1       -0.2405
     28 C         141.5054  145.9212  157.4914 C.ar    1  UNL1        0.1115
     29 C         141.0488  145.0766  158.6440 C.ar    1  UNL1        0.0910
     30 CL        140.2806  145.6992  159.7719 Cl      1  UNL1       -0.0793
@<TRIPOS>BOND
     1    19    20    2
     2    20    21   am
     3    21    23    1
     4    23    24   ar
     5    24    25    1
     6    24    26   ar
     7    26    27   ar
     8    27    28   ar
     9    28    29   ar
    10    29    30    1
    11    20     1    1
    12     1     2   ar
    13     2     3   ar
    14     3    12    1
    15    12    13   ar
    16    13    14   ar
    17    14    15   ar
    18    15    16    1
    19    15    17   ar
    20    17    18   ar
    21     3     4   ar
    22     4     5   ar
    23     5     6   ar
    24     6     7   ar
    25     7     8   ar
    26     8     9   ar
    27     9    10   ar
    28    10    11    2
    29    29    23   ar
    30    10     1   ar
    31    18    12   ar
    32     9     4   ar
    33    21    22    1
@<TRIPOS>MOLECULE
*****
 30 33 0 0 0
SMALL
GASTEIGER

@<TRIPOS>ATOM
      1 C         140.1610  141.7195  161.9382 C.ar    1  UNL1        0.1101
      2 C         140.5121  142.2000  163.3151 C.ar    1  UNL1        0.0891
      3 N         140.8866  141.2132  164.3810 N.ar    1  UNL1       -0.2900
      4 C         140.9098  139.7460  164.0700 C.ar    1  UNL1        0.1507
      5 N         141.2842  138.7592  165.1358 N.ar    1  UNL1       -0.2263
      6 C         141.3075  137.2920  164.8248 C.ar    1  UNL1        0.1005
      7 C         140.9563  136.8116  163.4479 C.ar    1  UNL1        0.0209
      8 C         140.5819  137.7983  162.3820 C.ar    1  UNL1        0.0078
      9 C         140.5586  139.2655  162.6931 C.ar    1  UNL1        0.0736
     10 C         140.1842  140.2524  161.6272 C.ar    1  UNL1        0.2043
     11 O         139.8330  139.7719  160.2503 O.2     1  UNL1       -0.2863
     12 C         141.2377  141.6937  165.7579 C.ar    1  UNL1        0.0654
     13 C         140.1505  142.0249  166.7367 C.ar    1  UNL1        0.0184
     14 C         140.5016  142.5053  168.1136 C.ar    1  UNL1        0.0129
     15 C         141.9401  142.6546  168.5117 C.ar    1  UNL1        0.0578
     16 CL        142.2913  143.1350  169.8886 Cl      1  UNL1       -0.0822
     17 C         143.0275  142.3233  167.5329 C.ar    1  UNL1        0.0129
     18 C         142.6763  141.8429  166.1560 C.ar    1  UNL1        0.0184
     19 O         138.7077  143.7160  161.1306 O.2     1  UNL1       -0.2696
     20 C         139.7865  142.7064  160.8723 C.2     1  UNL1        0.2541
     21 N         140.4909  142.6835  159.5482 N.am    1  UNL1       -0.2789
     22 H         141.1990  142.0208  159.3787 H       1  UNL1        0.1552
     23 C         140.1165  143.6702  158.4824 C.ar    1  UNL1        0.0750
     24 C         140.5670  145.0970  158.5895 C.ar    1  UNL1        0.0910
     25 CL        141.3919  145.5370  159.7625 Cl      1  UNL1       -0.0793
     26 C         140.1927  146.0837  157.5236 C.ar    1  UNL1        0.1115
     27 N         139.3677  145.6438  156.3506 N.ar    1  UNL1       -0.2405
     28 C         138.9173  144.2170  156.2434 C.ar    1  UNL1        0.1115
     29 C         139.2917  143.2303  157.3094 C.ar    1  UNL1        0.0910
     30 CL        138.8412  141.8035  157.2022 Cl      1  UNL1       -0.0793
@<TRIPOS>BOND
     1    19    20    2
     2    20    21   am
     3    21    23    1
     4    23    24   ar
     5    24    25    1
     6    24    26   ar
     7    26    27   ar
     8    27    28   ar
     9    28    29   ar
    10    29    30    1
    11    20     1    1
    12     1     2   ar
    13     2     3   ar
    14     3    12    1
    15    12    13   ar
    16    13    14   ar
    17    14    15   ar
    18    15    16    1
    19    15    17   ar
    20    17    18   ar
    21     3     4   ar
    22     4     5   ar
    23     5     6   ar
    24     6     7   ar
    25     7     8   ar
    26     8     9   ar
    27     9    10   ar
    28    10    11    2
    29    29    23   ar
    30    10     1   ar
    31    18    12   ar
    32     9     4   ar
    33    21    22    1
@<TRIPOS>MOLECULE
*****
 30 33 0 0 0
SMALL
GASTEIGER

@<TRIPOS>ATOM
      1 C         140.1248  140.3404  162.0084 C.ar    1  UNL1        0.1101
      2 C         140.4349  139.9744  163.4296 C.ar    1  UNL1        0.0891
      3 N         140.2561  140.9877  164.5211 N.ar    1  UNL1       -0.2900
      4 C         139.7670  142.3669  164.1913 C.ar    1  UNL1        0.1507
      5 N         139.5881  143.3801  165.2828 N.ar    1  UNL1       -0.2263
      6 C         139.0991  144.7592  164.9530 C.ar    1  UNL1        0.1005
      7 C         138.7889  145.1251  163.5318 C.ar    1  UNL1        0.0209
      8 C         138.9678  144.1119  162.4403 C.ar    1  UNL1        0.0078
      9 C         139.4568  142.7328  162.7701 C.ar    1  UNL1        0.0736
     10 C         139.6358  141.7195  161.6786 C.ar    1  UNL1        0.2043
     11 O         139.3256  142.0854  160.2574 O.2     1  UNL1       -0.2863
     12 C         140.5662  140.6218  165.9423 C.ar    1  UNL1        0.0654
     13 C         141.9884  140.6025  166.4186 C.ar    1  UNL1        0.0184
     14 C         142.2986  140.2366  167.8398 C.ar    1  UNL1        0.0129
     15 C         141.1865  139.8900  168.7848 C.ar    1  UNL1        0.0578
     16 CL        141.4966  139.5240  170.2060 Cl      1  UNL1       -0.0822
     17 C         139.7642  139.9092  168.3086 C.ar    1  UNL1        0.0129
     18 C         139.4540  140.2751  166.8873 C.ar    1  UNL1        0.0184
     19 O         139.7544  137.9412  161.0828 O.2     1  UNL1       -0.2696
     20 C         140.3037  139.3270  160.9169 C.2     1  UNL1        0.2541
     21 N         141.0319  139.6997  159.6596 N.am    1  UNL1       -0.2789
     22 H         141.3924  140.6093  159.5508 H       1  UNL1        0.1552
     23 C         141.2108  138.6865  158.5681 C.ar    1  UNL1        0.0750
     24 C         142.3768  137.7435  158.6039 C.ar    1  UNL1        0.0910
     25 CL        143.3639  137.8137  159.7312 Cl      1  UNL1       -0.0793
     26 C         142.5557  136.7303  157.5125 C.ar    1  UNL1        0.1115
     27 N         141.5687  136.6600  156.3852 N.ar    1  UNL1       -0.2405
     28 C         140.4027  137.6030  156.3493 C.ar    1  UNL1        0.1115
     29 C         140.2238  138.6163  157.4409 C.ar    1  UNL1        0.0910
     30 CL        139.0578  139.5592  157.4051 Cl      1  UNL1       -0.0793
@<TRIPOS>BOND
     1    19    20    2
     2    20    21   am
     3    21    23    1
     4    23    24   ar
     5    24    25    1
     6    24    26   ar
     7    26    27   ar
     8    27    28   ar
     9    28    29   ar
    10    29    30    1
    11    20     1    1
    12     1     2   ar
    13     2     3   ar
    14     3    12    1
    15    12    13   ar
    16    13    14   ar
    17    14    15   ar
    18    15    16    1
    19    15    17   ar
    20    17    18   ar
    21     3     4   ar
    22     4     5   ar
    23     5     6   ar
    24     6     7   ar
    25     7     8   ar
    26     8     9   ar
    27     9    10   ar
    28    10    11    2
    29    29    23   ar
    30    10     1   ar
    31    18    12   ar
    32     9     4   ar
    33    21    22    1
@<TRIPOS>MOLECULE
*****
 30 33 0 0 0
SMALL
GASTEIGER

@<TRIPOS>ATOM
      1 C         142.0440  141.5286  160.4338 C.ar    1  UNL1        0.1101
      2 C         141.4934  140.9147  161.6868 C.ar    1  UNL1        0.0891
      3 N         140.6634  141.7404  162.6245 N.ar    1  UNL1       -0.2900
      4 C         140.3840  143.1801  162.3092 C.ar    1  UNL1        0.1507
      5 N         139.5541  144.0059  163.2468 N.ar    1  UNL1       -0.2263
      6 C         139.2747  145.4455  162.9315 C.ar    1  UNL1        0.1005
      7 C         139.8254  146.0593  161.6785 C.ar    1  UNL1        0.0209
      8 C         140.6553  145.2336  160.7409 C.ar    1  UNL1        0.0078
      9 C         140.9347  143.7940  161.0562 C.ar    1  UNL1        0.0736
     10 C         141.7647  142.9682  160.1185 C.ar    1  UNL1        0.2043
     11 O         142.3153  143.5820  158.8655 O.2     1  UNL1       -0.2863
     12 C         140.1128  141.1266  163.8774 C.ar    1  UNL1        0.0654
     13 C         140.8662  141.2529  165.1683 C.ar    1  UNL1        0.0184
     14 C         140.3156  140.6390  166.4213 C.ar    1  UNL1        0.0129
     15 C         139.0115  139.8988  166.3834 C.ar    1  UNL1        0.0578
     16 CL        138.4609  139.2850  167.6364 Cl      1  UNL1       -0.0822
     17 C         138.2580  139.7725  165.0925 C.ar    1  UNL1        0.0129
     18 C         138.8086  140.3864  163.8395 C.ar    1  UNL1        0.0184
     19 O         144.0289  139.9034  160.0226 O.2     1  UNL1       -0.2696
     20 C         142.8740  140.7028  159.4961 C.2     1  UNL1        0.2541
     21 N         142.5490  140.6763  158.0320 N.am    1  UNL1       -0.2789
     22 H         141.7910  141.2010  157.6865 H       1  UNL1        0.1552
     23 C         143.3790  139.8506  157.0943 C.ar    1  UNL1        0.0750
     24 C         142.9890  138.4328  156.7979 C.ar    1  UNL1        0.0910
     25 CL        141.7691  137.8408  157.4391 Cl      1  UNL1       -0.0793
     26 C         143.8189  137.6071  155.8602 C.ar    1  UNL1        0.1115
     27 N         145.0389  138.1991  155.2189 N.ar    1  UNL1       -0.2405
     28 C         145.4289  139.6168  155.5153 C.ar    1  UNL1        0.1115
     29 C         144.5989  140.4426  156.4530 C.ar    1  UNL1        0.0910
     30 CL        144.9889  141.8603  156.7495 Cl      1  UNL1       -0.0793
@<TRIPOS>BOND
     1    19    20    2
     2    20    21   am
     3    21    23    1
     4    23    24   ar
     5    24    25    1
     6    24    26   ar
     7    26    27   ar
     8    27    28   ar
     9    28    29   ar
    10    29    30    1
    11    20     1    1
    12     1     2   ar
    13     2     3   ar
    14     3    12    1
    15    12    13   ar
    16    13    14   ar
    17    14    15   ar
    18    15    16    1
    19    15    17   ar
    20    17    18   ar
    21     3     4   ar
    22     4     5   ar
    23     5     6   ar
    24     6     7   ar
    25     7     8   ar
    26     8     9   ar
    27     9    10   ar
    28    10    11    2
    29    29    23   ar
    30    10     1   ar
    31    18    12   ar
    32     9     4   ar
    33    21    22    1
