@<TRIPOS>MOLECULE
*****
 41 46 0 0 0
SMALL
GASTEIGER

@<TRIPOS>ATOM
      1 C         139.1184  139.8771  165.2809 C.3     1  UNL1        0.0832
      2 C         138.1058  139.1621  166.1254 C.3     1  UNL1        0.0374
      3 C         138.2148  139.2008  167.6209 C.3     1  UNL1        0.0739
      4 N         139.3364  139.9545  168.2719 N.3     1  UNL1       -0.2699
      5 C         140.3490  140.6696  167.4274 C.3     1  UNL1        0.0829
      6 C         140.2401  140.6309  165.9319 C.3     1  UNL1        0.1103
      7 O         137.5153  141.9633  163.8393 O.2     1  UNL1       -0.2684
      8 C         138.2079  140.8815  163.0645 C.2     1  UNL1        0.2669
      9 N         139.0095  139.8385  163.7853 N.am    1  UNL1       -0.3006
     10 H         139.4640  139.1285  163.2768 H       1  UNL1        0.1497
     11 C         138.0989  140.8429  161.5690 C.ar    1  UNL1        0.1761
     12 C         138.3240  141.9976  160.6384 C.ar    1  UNL1        0.0673
     13 C         138.1099  141.5112  159.2357 C.ar    1  UNL1        0.1792
     14 O         137.7525  140.0557  159.2994 O.2     1  UNL1       -0.3532
     15 N         137.7457  139.6427  160.7415 N.ar    1  UNL1       -0.0723
     16 C         138.2318  142.3353  157.9884 C.ar    1  UNL1        0.0648
     17 C         139.3312  143.3482  157.8632 C.ar    1  UNL1        0.0077
     18 C         139.4531  144.1723  156.6158 C.ar    1  UNL1        0.0299
     19 C         138.4756  143.9837  155.4938 C.ar    1  UNL1        0.1424
     20 F         138.5975  144.8079  154.2465 F       1  UNL1       -0.2041
     21 C         137.3763  142.9710  155.6191 C.ar    1  UNL1        0.0593
     22 C         137.2544  142.1468  156.8664 C.ar    1  UNL1        0.1453
     23 F         136.1551  141.1340  156.9917 F       1  UNL1       -0.2040
     24 C         141.2527  141.3460  165.0873 C.2     1  UNL1        0.2252
     25 O         141.8959  140.6413  163.9298 O.2     1  UNL1       -0.2750
     26 N         141.6221  142.7657  165.4002 N.am    1  UNL1       -0.3010
     27 H         141.2000  143.2282  166.1599 H       1  UNL1        0.1497
     28 C         142.6347  143.4808  164.5557 C.3     1  UNL1        0.1089
     29 C         143.9613  143.9839  164.0688 C.3     1  UNL1        0.0274
     30 C         143.8904  143.1188  165.2922 C.3     1  UNL1        0.0274
     31 C         141.7308  144.0911  163.5260 C.ar    1  UNL1        0.1549
     32 N         140.3740  144.5932  163.9221 N.ar    1  UNL1       -0.2276
     33 C         139.4699  145.2035  162.8924 C.ar    1  UNL1        0.1019
     34 C         139.9229  145.3118  161.4665 C.ar    1  UNL1        0.0413
     35 C         141.2797  144.8097  161.0704 C.ar    1  UNL1        0.1019
     36 N         142.1837  144.1994  162.1001 N.ar    1  UNL1       -0.2276
     37 C         139.4454  139.9932  169.7675 C.3     1  UNL1        0.1050
     38 C         140.7652  140.2892  170.4159 C.3     1  UNL1        0.1486
     39 F         141.4750  138.9917  170.1662 F       1  UNL1       -0.2386
     40 C         141.8385  141.0359  171.1510 C.3     1  UNL1        0.0368
     41 C         140.5137  141.6897  170.8908 C.3     1  UNL1        0.0368
@<TRIPOS>BOND
     1     7     8    2
     2     8     9   am
     3     1     9    1
     4     1     2    1
     5     2     3    1
     6     3     4    1
     7     4    37    1
     8    37    38    1
     9    38    39    1
    10    38    40    1
    11    40    41    1
    12     4     5    1
    13     5     6    1
    14     6    24    1
    15    24    25    2
    16    24    26   am
    17    26    28    1
    18    28    31    1
    19    31    32   ar
    20    32    33   ar
    21    33    34   ar
    22    34    35   ar
    23    35    36   ar
    24    28    29    1
    25    29    30    1
    26     8    11    1
    27    11    12   ar
    28    12    13   ar
    29    13    16    1
    30    16    17   ar
    31    17    18   ar
    32    18    19   ar
    33    19    20    1
    34    19    21   ar
    35    21    22   ar
    36    22    23    1
    37    13    14   ar
    38    14    15   ar
    39     6     1    1
    40    30    28    1
    41    15    11   ar
    42    41    38    1
    43    36    31   ar
    44    22    16   ar
    45     9    10    1
    46    26    27    1
@<TRIPOS>MOLECULE
*****
 41 46 0 0 0
SMALL
GASTEIGER

@<TRIPOS>ATOM
      1 C         143.0151  140.9640  160.0322 C.3     1  UNL1        0.0832
      2 C         143.7285  139.9821  159.1509 C.3     1  UNL1        0.0374
      3 C         144.4308  140.4572  157.9136 C.3     1  UNL1        0.0739
      4 N         144.4197  141.9143  157.5576 N.3     1  UNL1       -0.2699
      5 C         143.7063  142.8963  158.4389 C.3     1  UNL1        0.0829
      6 C         143.0040  142.4211  159.6762 C.3     1  UNL1        0.1103
      7 O         144.5972  140.2960  162.4920 O.2     1  UNL1       -0.2684
      8 C         143.1038  140.1548  162.4995 C.2     1  UNL1        0.2669
      9 N         142.3128  140.4889  161.2696 N.am    1  UNL1       -0.3006
     10 H         141.3326  140.3963  161.2744 H       1  UNL1        0.1497
     11 C         142.4015  139.6797  163.7368 C.ar    1  UNL1        0.1761
     12 C         142.4590  140.3292  165.0877 C.ar    1  UNL1        0.0673
     13 C         141.6115  139.5226  166.0263 C.ar    1  UNL1        0.1792
     14 O         141.0302  138.3745  165.2555 O.2     1  UNL1       -0.3532
     15 N         141.5185  138.4716  163.8405 N.ar    1  UNL1       -0.0723
     16 C         141.3850  139.8130  167.4804 C.ar    1  UNL1        0.0648
     17 C         142.5538  139.9245  168.4139 C.ar    1  UNL1        0.0077
     18 C         142.3273  140.2149  169.8679 C.ar    1  UNL1        0.0299
     19 C         140.9320  140.3938  170.3885 C.ar    1  UNL1        0.1424
     20 F         140.7055  140.6842  171.8426 F       1  UNL1       -0.2041
     21 C         139.7632  140.2822  169.4551 C.ar    1  UNL1        0.0593
     22 C         139.9897  139.9918  168.0010 C.ar    1  UNL1        0.1453
     23 F         138.8209  139.8803  167.0675 F       1  UNL1       -0.2040
     24 C         142.2905  143.4031  160.5576 C.2     1  UNL1        0.2252
     25 O         143.0689  144.2513  161.5192 O.2     1  UNL1       -0.2750
     26 N         140.7987  143.5368  160.4775 N.am    1  UNL1       -0.3010
     27 H         140.2878  142.9800  159.8464 H       1  UNL1        0.1497
     28 C         140.0852  144.5186  161.3588 C.3     1  UNL1        0.1089
     29 C         139.5742  145.8261  161.8875 C.3     1  UNL1        0.0274
     30 C         140.4205  145.7970  160.6493 C.3     1  UNL1        0.0274
     31 C         139.5022  143.5814  162.3744 C.ar    1  UNL1        0.1549
     32 N         139.7241  142.1035  162.2456 N.ar    1  UNL1       -0.2276
     33 C         139.1410  141.1661  163.2612 C.ar    1  UNL1        0.1019
     34 C         138.3361  141.7066  164.4056 C.ar    1  UNL1        0.0413
     35 C         138.1142  143.1845  164.5345 C.ar    1  UNL1        0.1019
     36 N         138.6972  144.1219  163.5189 N.ar    1  UNL1       -0.2276
     37 C         145.1220  142.3895  156.3202 C.3     1  UNL1        0.1050
     38 C         146.6160  142.2964  156.2232 C.3     1  UNL1        0.1486
     39 F         147.0008  142.9042  157.5394 F       1  UNL1       -0.2386
     40 C         147.9763  141.9922  155.6691 C.3     1  UNL1        0.0368
     41 C         146.7499  141.6562  154.8733 C.3     1  UNL1        0.0368
@<TRIPOS>BOND
     1     7     8    2
     2     8     9   am
     3     1     9    1
     4     1     2    1
     5     2     3    1
     6     3     4    1
     7     4    37    1
     8    37    38    1
     9    38    39    1
    10    38    40    1
    11    40    41    1
    12     4     5    1
    13     5     6    1
    14     6    24    1
    15    24    25    2
    16    24    26   am
    17    26    28    1
    18    28    31    1
    19    31    32   ar
    20    32    33   ar
    21    33    34   ar
    22    34    35   ar
    23    35    36   ar
    24    28    29    1
    25    29    30    1
    26     8    11    1
    27    11    12   ar
    28    12    13   ar
    29    13    16    1
    30    16    17   ar
    31    17    18   ar
    32    18    19   ar
    33    19    20    1
    34    19    21   ar
    35    21    22   ar
    36    22    23    1
    37    13    14   ar
    38    14    15   ar
    39     6     1    1
    40    30    28    1
    41    15    11   ar
    42    41    38    1
    43    36    31   ar
    44    22    16   ar
    45     9    10    1
    46    26    27    1
@<TRIPOS>MOLECULE
*****
 41 46 0 0 0
SMALL
GASTEIGER

@<TRIPOS>ATOM
      1 C         142.1660  139.4838  164.3514 C.3     1  UNL1        0.0832
      2 C         142.9574  138.5295  165.1957 C.3     1  UNL1        0.0374
      3 C         143.1078  138.7775  166.6674 C.3     1  UNL1        0.0739
      4 N         142.4667  139.9798  167.2947 N.3     1  UNL1       -0.2699
      5 C         141.6753  140.9341  166.4504 C.3     1  UNL1        0.0829
      6 C         141.5250  140.6861  164.9787 C.3     1  UNL1        0.1103
      7 O         144.4786  139.9722  162.5039 O.2     1  UNL1       -0.2684
      8 C         143.1719  139.4800  161.9559 C.2     1  UNL1        0.2669
      9 N         142.0156  139.2358  162.8796 N.am    1  UNL1       -0.3006
     10 H         141.1579  138.9128  162.5200 H       1  UNL1        0.1497
     11 C         143.0216  139.2320  160.4842 C.ar    1  UNL1        0.1761
     12 C         141.7718  138.7786  159.7897 C.ar    1  UNL1        0.0673
     13 C         142.0724  138.6603  158.3249 C.ar    1  UNL1        0.1792
     14 O         143.5080  139.0407  158.1142 O.2     1  UNL1       -0.3532
     15 N         144.0946  139.3940  159.4487 N.ar    1  UNL1       -0.0723
     16 C         141.1069  138.2361  157.2581 C.ar    1  UNL1        0.0648
     17 C         139.9977  139.1560  156.8416 C.ar    1  UNL1        0.0077
     18 C         139.0323  138.7318  155.7748 C.ar    1  UNL1        0.0299
     19 C         139.1761  137.3877  155.1246 C.ar    1  UNL1        0.1424
     20 F         138.2107  136.9635  154.0579 F       1  UNL1       -0.2041
     21 C         140.2852  136.4679  155.5412 C.ar    1  UNL1        0.0593
     22 C         141.2506  136.8921  156.6079 C.ar    1  UNL1        0.1453
     23 F         142.3599  135.9722  157.0245 F       1  UNL1       -0.2040
     24 C         140.7335  141.6404  164.1343 C.2     1  UNL1        0.2252
     25 O         141.4267  142.4845  163.1062 O.2     1  UNL1       -0.2750
     26 N         139.2489  141.7507  164.3180 N.am    1  UNL1       -0.3010
     27 H         138.7940  141.1967  164.9928 H       1  UNL1        0.1497
     28 C         138.4575  142.7049  163.4737 C.3     1  UNL1        0.1089
     29 C         137.7263  143.9473  163.0591 C.3     1  UNL1        0.0274
     30 C         138.3562  143.8659  164.4181 C.3     1  UNL1        0.0274
     31 C         138.2839  141.8754  162.2361 C.ar    1  UNL1        0.1549
     32 N         138.6294  142.4492  160.8940 N.ar    1  UNL1       -0.2276
     33 C         138.4558  141.6197  159.6562 C.ar    1  UNL1        0.1019
     34 C         137.9368  140.2163  159.7608 C.ar    1  UNL1        0.0413
     35 C         137.5913  139.6424  161.1029 C.ar    1  UNL1        0.1019
     36 N         137.7648  140.4719  162.3406 N.ar    1  UNL1       -0.2276
     37 C         142.6171  140.2278  168.7664 C.3     1  UNL1        0.1050
     38 C         142.1695  141.5320  169.3569 C.3     1  UNL1        0.1486
     39 F         140.7082  141.2472  169.5398 F       1  UNL1       -0.2386
     40 C         142.2293  142.9351  169.8837 C.3     1  UNL1        0.0368
     41 C         143.4753  142.2698  169.3790 C.3     1  UNL1        0.0368
@<TRIPOS>BOND
     1     7     8    2
     2     8     9   am
     3     1     9    1
     4     1     2    1
     5     2     3    1
     6     3     4    1
     7     4    37    1
     8    37    38    1
     9    38    39    1
    10    38    40    1
    11    40    41    1
    12     4     5    1
    13     5     6    1
    14     6    24    1
    15    24    25    2
    16    24    26   am
    17    26    28    1
    18    28    31    1
    19    31    32   ar
    20    32    33   ar
    21    33    34   ar
    22    34    35   ar
    23    35    36   ar
    24    28    29    1
    25    29    30    1
    26     8    11    1
    27    11    12   ar
    28    12    13   ar
    29    13    16    1
    30    16    17   ar
    31    17    18   ar
    32    18    19   ar
    33    19    20    1
    34    19    21   ar
    35    21    22   ar
    36    22    23    1
    37    13    14   ar
    38    14    15   ar
    39     6     1    1
    40    30    28    1
    41    15    11   ar
    42    41    38    1
    43    36    31   ar
    44    22    16   ar
    45     9    10    1
    46    26    27    1
@<TRIPOS>MOLECULE
*****
 41 46 0 0 0
SMALL
GASTEIGER

@<TRIPOS>ATOM
      1 C         139.4096  140.4214  164.6033 C.3     1  UNL1        0.0832
      2 C         138.4498  139.6593  165.4680 C.3     1  UNL1        0.0374
      3 C         138.7124  139.5208  166.9383 C.3     1  UNL1        0.0739
      4 N         139.9349  140.1444  167.5438 N.3     1  UNL1       -0.2699
      5 C         140.8948  140.9065  166.6791 C.3     1  UNL1        0.0829
      6 C         140.6321  141.0450  165.2088 C.3     1  UNL1        0.1103
      7 O         139.9703  138.1248  162.7564 O.2     1  UNL1       -0.2684
      8 C         139.4273  139.4117  162.2095 C.2     1  UNL1        0.2669
      9 N         139.1470  140.5600  163.1329 N.am    1  UNL1       -0.3006
     10 H         138.7906  141.4047  162.7740 H       1  UNL1        0.1497
     11 C         139.1647  139.5502  160.7392 C.ar    1  UNL1        0.1761
     12 C         138.6144  140.7650  160.0524 C.ar    1  UNL1        0.0673
     13 C         138.5159  140.4638  158.5863 C.ar    1  UNL1        0.1792
     14 O         139.0052  139.0629  158.3669 O.2     1  UNL1       -0.3532
     15 N         139.4062  138.4983  159.6975 N.ar    1  UNL1       -0.0723
     16 C         138.0158  141.3993  157.5257 C.ar    1  UNL1        0.0648
     17 C         136.7582  141.0775  156.7741 C.ar    1  UNL1        0.0077
     18 C         136.2582  142.0129  155.7135 C.ar    1  UNL1        0.0299
     19 C         137.0157  143.2702  155.4046 C.ar    1  UNL1        0.1424
     20 F         136.5156  144.2057  154.3440 F       1  UNL1       -0.2041
     21 C         138.2731  143.5920  156.1562 C.ar    1  UNL1        0.0593
     22 C         138.7732  142.6566  157.2168 C.ar    1  UNL1        0.1453
     23 F         140.0308  142.9784  157.9684 F       1  UNL1       -0.2040
     24 C         141.5920  141.8072  164.3440 C.2     1  UNL1        0.2252
     25 O         142.2710  141.1236  163.1944 O.2     1  UNL1       -0.2750
     26 N         141.8727  143.2529  164.6288 N.am    1  UNL1       -0.3010
     27 H         141.4269  143.7015  165.3833 H       1  UNL1        0.1497
     28 C         142.8325  144.0150  163.7640 C.3     1  UNL1        0.1089
     29 C         144.1216  144.5904  163.2570 C.3     1  UNL1        0.0274
     30 C         144.1141  143.7419  164.4940 C.3     1  UNL1        0.0274
     31 C         141.8842  144.5528  162.7337 C.ar    1  UNL1        0.1549
     32 N         142.2379  144.4792  161.2779 N.ar    1  UNL1       -0.2276
     33 C         141.2896  145.0170  160.2474 C.ar    1  UNL1        0.1019
     34 C         139.9877  145.6285  160.6730 C.ar    1  UNL1        0.0413
     35 C         139.6341  145.7021  162.1288 C.ar    1  UNL1        0.1019
     36 N         140.5822  145.1643  163.1592 N.ar    1  UNL1       -0.2276
     37 C         140.1976  140.0058  169.0142 C.3     1  UNL1        0.1050
     38 C         141.4714  140.5367  169.6018 C.3     1  UNL1        0.1486
     39 F         141.1167  141.9890  169.7235 F       1  UNL1       -0.2386
     40 C         142.8685  140.5632  170.1472 C.3     1  UNL1        0.0368
     41 C         142.2686  139.2687  169.6842 C.3     1  UNL1        0.0368
@<TRIPOS>BOND
     1     7     8    2
     2     8     9   am
     3     1     9    1
     4     1     2    1
     5     2     3    1
     6     3     4    1
     7     4    37    1
     8    37    38    1
     9    38    39    1
    10    38    40    1
    11    40    41    1
    12     4     5    1
    13     5     6    1
    14     6    24    1
    15    24    25    2
    16    24    26   am
    17    26    28    1
    18    28    31    1
    19    31    32   ar
    20    32    33   ar
    21    33    34   ar
    22    34    35   ar
    23    35    36   ar
    24    28    29    1
    25    29    30    1
    26     8    11    1
    27    11    12   ar
    28    12    13   ar
    29    13    16    1
    30    16    17   ar
    31    17    18   ar
    32    18    19   ar
    33    19    20    1
    34    19    21   ar
    35    21    22   ar
    36    22    23    1
    37    13    14   ar
    38    14    15   ar
    39     6     1    1
    40    30    28    1
    41    15    11   ar
    42    41    38    1
    43    36    31   ar
    44    22    16   ar
    45     9    10    1
    46    26    27    1
@<TRIPOS>MOLECULE
*****
 41 46 0 0 0
SMALL
GASTEIGER

@<TRIPOS>ATOM
      1 C         142.1983  138.5808  161.2583 C.3     1  UNL1        0.0832
      2 C         142.8336  137.3218  160.7470 C.3     1  UNL1        0.0374
      3 C         143.0440  137.1327  159.2740 C.3     1  UNL1        0.0739
      4 N         142.6191  138.2025  158.3122 N.3     1  UNL1       -0.2699
      5 C         141.9839  139.4615  158.8235 C.3     1  UNL1        0.0829
      6 C         141.7735  139.6506  160.2965 C.3     1  UNL1        0.1103
      7 O         144.5371  139.1616  163.0452 O.2     1  UNL1       -0.2684
      8 C         143.1573  139.0603  163.6249 C.2     1  UNL1        0.2669
      9 N         141.9879  138.7699  162.7314 N.am    1  UNL1       -0.3006
     10 H         141.0823  138.7035  163.1119 H       1  UNL1        0.1497
     11 C         142.9469  139.2495  165.0979 C.ar    1  UNL1        0.1761
     12 C         142.0543  140.2717  165.7370 C.ar    1  UNL1        0.0673
     13 C         142.1479  140.1037  167.2246 C.ar    1  UNL1        0.1792
     14 O         143.0985  138.9776  167.5049 O.2     1  UNL1       -0.3532
     15 N         143.5923  138.4498  166.1905 N.ar    1  UNL1       -0.0723
     16 C         141.4191  140.9186  168.2515 C.ar    1  UNL1        0.0648
     17 C         140.1652  140.3862  168.8795 C.ar    1  UNL1        0.0077
     18 C         139.4363  141.2011  169.9065 C.ar    1  UNL1        0.0299
     19 C         139.9613  142.5483  170.3054 C.ar    1  UNL1        0.1424
     20 F         139.2324  143.3632  171.3324 F       1  UNL1       -0.2041
     21 C         141.2151  143.0807  169.6775 C.ar    1  UNL1        0.0593
     22 C         141.9440  142.2658  168.6505 C.ar    1  UNL1        0.1453
     23 F         143.1979  142.7982  168.0225 F       1  UNL1       -0.2040
     24 C         141.1383  140.9096  160.8079 C.2     1  UNL1        0.2252
     25 O         140.0630  140.8369  161.8512 O.2     1  UNL1       -0.2750
     26 N         141.5784  142.2413  160.2760 N.am    1  UNL1       -0.3010
     27 H         142.2841  142.2890  159.5912 H       1  UNL1        0.1497
     28 C         140.9432  143.5002  160.7873 C.3     1  UNL1        0.1089
     29 C         139.9989  144.6611  160.8909 C.3     1  UNL1        0.0274
     30 C         139.8326  143.6549  159.7908 C.3     1  UNL1        0.0274
     31 C         141.8330  143.7828  161.9612 C.ar    1  UNL1        0.1549
     32 N         141.3117  143.6077  163.3568 N.ar    1  UNL1       -0.2276
     33 C         142.2016  143.8903  164.5309 C.ar    1  UNL1        0.1019
     34 C         143.6127  144.3479  164.3093 C.ar    1  UNL1        0.0413
     35 C         144.1341  144.5229  162.9138 C.ar    1  UNL1        0.1019
     36 N         143.2443  144.2404  161.7397 N.ar    1  UNL1       -0.2276
     37 C         142.8296  138.0133  156.8391 C.3     1  UNL1        0.1050
     38 C         142.7240  136.6439  156.2362 C.3     1  UNL1        0.1486
     39 F         144.1776  136.2841  156.1508 F       1  UNL1       -0.2386
     40 C         142.1135  135.3995  155.6629 C.3     1  UNL1        0.0368
     41 C         141.2335  136.5282  156.1121 C.3     1  UNL1        0.0368
@<TRIPOS>BOND
     1     7     8    2
     2     8     9   am
     3     1     9    1
     4     1     2    1
     5     2     3    1
     6     3     4    1
     7     4    37    1
     8    37    38    1
     9    38    39    1
    10    38    40    1
    11    40    41    1
    12     4     5    1
    13     5     6    1
    14     6    24    1
    15    24    25    2
    16    24    26   am
    17    26    28    1
    18    28    31    1
    19    31    32   ar
    20    32    33   ar
    21    33    34   ar
    22    34    35   ar
    23    35    36   ar
    24    28    29    1
    25    29    30    1
    26     8    11    1
    27    11    12   ar
    28    12    13   ar
    29    13    16    1
    30    16    17   ar
    31    17    18   ar
    32    18    19   ar
    33    19    20    1
    34    19    21   ar
    35    21    22   ar
    36    22    23    1
    37    13    14   ar
    38    14    15   ar
    39     6     1    1
    40    30    28    1
    41    15    11   ar
    42    41    38    1
    43    36    31   ar
    44    22    16   ar
    45     9    10    1
    46    26    27    1
@<TRIPOS>MOLECULE
*****
 41 46 0 0 0
SMALL
GASTEIGER

@<TRIPOS>ATOM
      1 C         140.6950  141.3698  160.0989 C.3     1  UNL1        0.0832
      2 C         140.1948  142.5933  159.3900 C.3     1  UNL1        0.0374
      3 C         139.7489  143.7880  160.1798 C.3     1  UNL1        0.0739
      4 N         139.8034  143.7592  161.6785 N.3     1  UNL1       -0.2699
      5 C         140.3037  142.5356  162.3874 C.3     1  UNL1        0.0829
      6 C         140.7495  141.3409  161.5976 C.3     1  UNL1        0.1103
      7 O         143.2522  141.4755  158.5337 O.2     1  UNL1       -0.2684
      8 C         142.4195  140.2278  158.5265 C.2     1  UNL1        0.2669
      9 N         141.1409  140.1750  159.3091 N.am    1  UNL1       -0.3006
     10 H         140.5943  139.3561  159.3043 H       1  UNL1        0.1497
     11 C         142.8653  139.0331  157.7367 C.ar    1  UNL1        0.1761
     12 C         142.2549  137.6639  157.7887 C.ar    1  UNL1        0.0673
     13 C         143.0122  136.7824  156.8404 C.ar    1  UNL1        0.1792
     14 O         144.0907  137.6068  156.2022 O.2     1  UNL1       -0.3532
     15 N         143.9999  138.9978  156.7562 N.ar    1  UNL1       -0.0723
     16 C         142.7390  135.3313  156.5765 C.ar    1  UNL1        0.0648
     17 C         143.5133  134.2768  157.3104 C.ar    1  UNL1        0.0077
     18 C         143.2401  132.8257  157.0465 C.ar    1  UNL1        0.0299
     19 C         142.1926  132.4291  156.0488 C.ar    1  UNL1        0.1424
     20 F         141.9194  130.9780  155.7849 F       1  UNL1       -0.2041
     21 C         141.4184  133.4835  155.3150 C.ar    1  UNL1        0.0593
     22 C         141.6916  134.9346  155.5788 C.ar    1  UNL1        0.1453
     23 F         140.9173  135.9891  154.8450 F       1  UNL1       -0.2040
     24 C         141.2498  140.1173  162.3065 C.2     1  UNL1        0.2252
     25 O         142.5908  139.5435  161.9567 O.2     1  UNL1       -0.2750
     26 N         140.4090  139.4675  163.3652 N.am    1  UNL1       -0.3010
     27 H         139.5288  139.8441  163.5948 H       1  UNL1        0.1497
     28 C         140.9092  138.2439  164.0741 C.3     1  UNL1        0.1089
     29 C         141.2980  136.8157  164.3171 C.3     1  UNL1        0.0274
     30 C         140.7620  137.2298  162.9787 C.3     1  UNL1        0.0274
     31 C         141.2302  138.8331  165.4157 C.ar    1  UNL1        0.1549
     32 N         140.2051  139.6562  166.1380 N.ar    1  UNL1       -0.2276
     33 C         140.5260  140.2454  167.4797 C.ar    1  UNL1        0.1019
     34 C         141.8720  140.0114  168.0989 C.ar    1  UNL1        0.0413
     35 C         142.8970  139.1882  167.3767 C.ar    1  UNL1        0.1019
     36 N         142.5762  138.5990  166.0351 N.ar    1  UNL1       -0.2276
     37 C         139.3576  144.9540  162.4683 C.3     1  UNL1        0.1050
     38 C         139.3242  144.8927  163.9667 C.3     1  UNL1        0.1486
     39 F         140.7344  145.2999  164.2756 F       1  UNL1       -0.2386
     40 C         138.8010  144.6899  165.3578 C.3     1  UNL1        0.0368
     41 C         137.9023  144.4642  164.1782 C.3     1  UNL1        0.0368
@<TRIPOS>BOND
     1     7     8    2
     2     8     9   am
     3     1     9    1
     4     1     2    1
     5     2     3    1
     6     3     4    1
     7     4    37    1
     8    37    38    1
     9    38    39    1
    10    38    40    1
    11    40    41    1
    12     4     5    1
    13     5     6    1
    14     6    24    1
    15    24    25    2
    16    24    26   am
    17    26    28    1
    18    28    31    1
    19    31    32   ar
    20    32    33   ar
    21    33    34   ar
    22    34    35   ar
    23    35    36   ar
    24    28    29    1
    25    29    30    1
    26     8    11    1
    27    11    12   ar
    28    12    13   ar
    29    13    16    1
    30    16    17   ar
    31    17    18   ar
    32    18    19   ar
    33    19    20    1
    34    19    21   ar
    35    21    22   ar
    36    22    23    1
    37    13    14   ar
    38    14    15   ar
    39     6     1    1
    40    30    28    1
    41    15    11   ar
    42    41    38    1
    43    36    31   ar
    44    22    16   ar
    45     9    10    1
    46    26    27    1
@<TRIPOS>MOLECULE
*****
 41 46 0 0 0
SMALL
GASTEIGER

@<TRIPOS>ATOM
      1 C         142.3306  143.5315  160.0530 C.3     1  UNL1        0.0832
      2 C         141.5856  144.7405  159.5698 C.3     1  UNL1        0.0374
      3 C         140.5182  145.3553  160.4256 C.3     1  UNL1        0.0739
      4 N         140.1957  144.7611  161.7647 N.3     1  UNL1       -0.2699
      5 C         140.9406  143.5522  162.2478 C.3     1  UNL1        0.0829
      6 C         142.0080  142.9374  161.3920 C.3     1  UNL1        0.1103
      7 O         141.5785  141.6733  157.8211 O.2     1  UNL1       -0.2684
      8 C         143.0220  141.9875  158.0811 C.2     1  UNL1        0.2669
      9 N         143.3981  142.9166  159.1971 N.am    1  UNL1       -0.3006
     10 H         144.3454  143.1229  159.3678 H       1  UNL1        0.1497
     11 C         144.0894  141.3726  157.2253 C.ar    1  UNL1        0.1761
     12 C         145.0890  142.1178  156.3913 C.ar    1  UNL1        0.0673
     13 C         145.9620  141.1104  155.7037 C.ar    1  UNL1        0.1792
     14 O         145.5020  139.7425  156.1128 O.2     1  UNL1       -0.3532
     15 N         144.3447  139.9046  157.0531 N.ar    1  UNL1       -0.0723
     16 C         147.0960  141.4169  154.7709 C.ar    1  UNL1        0.0648
     17 C         146.9232  141.2283  153.2928 C.ar    1  UNL1        0.0077
     18 C         148.0571  141.5348  152.3600 C.ar    1  UNL1        0.0299
     19 C         149.3639  142.0300  152.9052 C.ar    1  UNL1        0.1424
     20 F         150.4978  142.3365  151.9724 F       1  UNL1       -0.2041
     21 C         149.5366  142.2186  154.3832 C.ar    1  UNL1        0.0593
     22 C         148.4027  141.9121  155.3160 C.ar    1  UNL1        0.1453
     23 F         148.5755  142.1007  156.7940 F       1  UNL1       -0.2040
     24 C         142.7530  141.7284  161.8751 C.2     1  UNL1        0.2252
     25 O         143.1403  140.6497  160.9074 O.2     1  UNL1       -0.2750
     26 N         143.1107  141.5981  163.3260 N.am    1  UNL1       -0.3010
     27 H         142.8566  142.3061  163.9612 H       1  UNL1        0.1497
     28 C         143.8557  140.3892  163.8092 C.3     1  UNL1        0.1089
     29 C         145.0007  139.4961  164.1852 C.3     1  UNL1        0.0274
     30 C         145.2665  140.8791  163.6684 C.3     1  UNL1        0.0274
     31 C         142.7037  139.4794  164.1178 C.ar    1  UNL1        0.1549
     32 N         142.5450  138.1896  163.3686 N.ar    1  UNL1       -0.2276
     33 C         141.3930  137.2798  163.6772 C.ar    1  UNL1        0.1019
     34 C         140.3997  137.6599  164.7349 C.ar    1  UNL1        0.0413
     35 C         140.5584  138.9497  165.4841 C.ar    1  UNL1        0.1019
     36 N         141.7103  139.8595  165.1756 N.ar    1  UNL1       -0.2276
     37 C         139.1282  145.3760  162.6205 C.3     1  UNL1        0.1050
     38 C         138.2936  144.5097  163.5165 C.3     1  UNL1        0.1486
     39 F         137.3994  143.8669  162.4981 F       1  UNL1       -0.2386
     40 C         137.7695  143.8665  164.7661 C.3     1  UNL1        0.0368
     41 C         138.8979  144.8516  164.8461 C.3     1  UNL1        0.0368
@<TRIPOS>BOND
     1     7     8    2
     2     8     9   am
     3     1     9    1
     4     1     2    1
     5     2     3    1
     6     3     4    1
     7     4    37    1
     8    37    38    1
     9    38    39    1
    10    38    40    1
    11    40    41    1
    12     4     5    1
    13     5     6    1
    14     6    24    1
    15    24    25    2
    16    24    26   am
    17    26    28    1
    18    28    31    1
    19    31    32   ar
    20    32    33   ar
    21    33    34   ar
    22    34    35   ar
    23    35    36   ar
    24    28    29    1
    25    29    30    1
    26     8    11    1
    27    11    12   ar
    28    12    13   ar
    29    13    16    1
    30    16    17   ar
    31    17    18   ar
    32    18    19   ar
    33    19    20    1
    34    19    21   ar
    35    21    22   ar
    36    22    23    1
    37    13    14   ar
    38    14    15   ar
    39     6     1    1
    40    30    28    1
    41    15    11   ar
    42    41    38    1
    43    36    31   ar
    44    22    16   ar
    45     9    10    1
    46    26    27    1
@<TRIPOS>MOLECULE
*****
 41 46 0 0 0
SMALL
GASTEIGER

@<TRIPOS>ATOM
      1 C         141.0401  143.7746  160.6240 C.3     1  UNL1        0.0832
      2 C         140.7489  145.1875  160.2130 C.3     1  UNL1        0.0374
      3 C         140.5396  145.5193  158.7653 C.3     1  UNL1        0.0739
      4 N         140.6216  144.4384  157.7285 N.3     1  UNL1       -0.2699
      5 C         140.9128  143.0255  158.1396 C.3     1  UNL1        0.0829
      6 C         141.1221  142.6936  159.5873 C.3     1  UNL1        0.1103
      7 O         143.7857  143.9468  161.8207 O.2     1  UNL1       -0.2684
      8 C         142.6222  143.5287  162.6702 C.2     1  UNL1        0.2669
      9 N         141.2494  143.4427  162.0718 N.am    1  UNL1       -0.3006
     10 H         140.4857  143.1683  162.6293 H       1  UNL1        0.1497
     11 C         142.8315  143.1968  164.1179 C.ar    1  UNL1        0.1761
     12 C         141.8898  142.4197  164.9894 C.ar    1  UNL1        0.0673
     13 C         142.4955  142.3263  166.3585 C.ar    1  UNL1        0.1792
     14 O         143.8116  143.0457  166.3331 O.2     1  UNL1       -0.3532
     15 N         144.0191  143.5837  164.9484 N.ar    1  UNL1       -0.0723
     16 C         141.8914  141.6350  167.5446 C.ar    1  UNL1        0.0648
     17 C         142.4939  140.3604  168.0571 C.ar    1  UNL1        0.0077
     18 C         141.8897  139.6691  169.2432 C.ar    1  UNL1        0.0299
     19 C         140.6830  140.2522  169.9169 C.ar    1  UNL1        0.1424
     20 F         140.0789  139.5609  171.1031 F       1  UNL1       -0.2041
     21 C         140.0806  141.5267  169.4045 C.ar    1  UNL1        0.0593
     22 C         140.6847  142.2180  168.2183 C.ar    1  UNL1        0.1453
     23 F         140.0823  143.4926  167.7059 F       1  UNL1       -0.2040
     24 C         141.4133  141.2807  159.9984 C.2     1  UNL1        0.2252
     25 O         140.3441  140.4530  160.6476 O.2     1  UNL1       -0.2750
     26 N         142.7738  140.6956  159.7602 N.am    1  UNL1       -0.3010
     27 H         143.4756  141.2390  159.3341 H       1  UNL1        0.1497
     28 C         143.0651  139.2828  160.1713 C.3     1  UNL1        0.1089
     29 C         143.1720  137.7882  160.1020 C.3     1  UNL1        0.0274
     30 C         142.6352  138.5568  158.9310 C.3     1  UNL1        0.0274
     31 C         143.5961  139.5181  161.5542 C.ar    1  UNL1        0.1549
     32 N         143.0404  138.7442  162.7127 N.ar    1  UNL1       -0.2276
     33 C         143.5714  138.9794  164.0958 C.ar    1  UNL1        0.1019
     34 C         144.6581  139.9886  164.3202 C.ar    1  UNL1        0.0413
     35 C         145.2139  140.7625  163.1617 C.ar    1  UNL1        0.1019
     36 N         144.6829  140.5273  161.7787 N.ar    1  UNL1       -0.2276
     37 C         140.4123  144.7703  156.2807 C.3     1  UNL1        0.1050
     38 C         139.0333  144.7243  155.6924 C.3     1  UNL1        0.1486
     39 F         138.7881  143.2448  155.7188 F       1  UNL1       -0.2386
     40 C         137.7394  145.1922  155.0950 C.3     1  UNL1        0.0368
     41 C         138.7996  146.1880  155.4618 C.3     1  UNL1        0.0368
@<TRIPOS>BOND
     1     7     8    2
     2     8     9   am
     3     1     9    1
     4     1     2    1
     5     2     3    1
     6     3     4    1
     7     4    37    1
     8    37    38    1
     9    38    39    1
    10    38    40    1
    11    40    41    1
    12     4     5    1
    13     5     6    1
    14     6    24    1
    15    24    25    2
    16    24    26   am
    17    26    28    1
    18    28    31    1
    19    31    32   ar
    20    32    33   ar
    21    33    34   ar
    22    34    35   ar
    23    35    36   ar
    24    28    29    1
    25    29    30    1
    26     8    11    1
    27    11    12   ar
    28    12    13   ar
    29    13    16    1
    30    16    17   ar
    31    17    18   ar
    32    18    19   ar
    33    19    20    1
    34    19    21   ar
    35    21    22   ar
    36    22    23    1
    37    13    14   ar
    38    14    15   ar
    39     6     1    1
    40    30    28    1
    41    15    11   ar
    42    41    38    1
    43    36    31   ar
    44    22    16   ar
    45     9    10    1
    46    26    27    1
@<TRIPOS>MOLECULE
*****
 41 46 0 0 0
SMALL
GASTEIGER

@<TRIPOS>ATOM
      1 C         142.5998  139.9337  160.7909 C.3     1  UNL1        0.0832
      2 C         142.9132  138.4708  160.6837 C.3     1  UNL1        0.0374
      3 C         142.9626  137.8112  159.3374 C.3     1  UNL1        0.0739
      4 N         142.6987  138.6145  158.0985 N.3     1  UNL1       -0.2699
      5 C         142.3854  140.0774  158.2057 C.3     1  UNL1        0.0829
      6 C         142.3359  140.7371  159.5520 C.3     1  UNL1        0.1103
      7 O         145.1260  140.9268  162.0684 O.2     1  UNL1       -0.2684
      8 C         143.8135  141.0900  162.7760 C.2     1  UNL1        0.2669
      9 N         142.5503  140.5934  162.1372 N.am    1  UNL1       -0.3006
     10 H         141.6888  140.7005  162.6016 H       1  UNL1        0.1497
     11 C         143.7640  141.7496  164.1222 C.ar    1  UNL1        0.1761
     12 C         142.8684  141.3624  165.2615 C.ar    1  UNL1        0.0673
     13 C         143.1524  142.2858  166.4089 C.ar    1  UNL1        0.1792
     14 O         144.2235  143.2438  165.9787 O.2     1  UNL1       -0.3532
     15 N         144.6015  142.9124  164.5655 N.ar    1  UNL1       -0.0723
     16 C         142.4829  142.2564  167.7509 C.ar    1  UNL1        0.0648
     17 C         143.2836  141.9514  168.9820 C.ar    1  UNL1        0.0077
     18 C         142.6141  141.9220  170.3240 C.ar    1  UNL1        0.0299
     19 C         141.1438  142.1977  170.4347 C.ar    1  UNL1        0.1424
     20 F         140.4742  142.1683  171.7767 F       1  UNL1       -0.2041
     21 C         140.3431  142.5026  169.2036 C.ar    1  UNL1        0.0593
     22 C         141.0126  142.5320  167.8617 C.ar    1  UNL1        0.1453
     23 F         140.2119  142.8370  166.6305 F       1  UNL1       -0.2040
     24 C         142.0225  142.2001  159.6593 C.2     1  UNL1        0.2252
     25 O         143.0538  143.1510  160.1904 O.2     1  UNL1       -0.2750
     26 N         140.6778  142.7121  159.2355 N.am    1  UNL1       -0.3010
     27 H         140.0010  142.0880  158.8869 H       1  UNL1        0.1497
     28 C         140.3644  144.1750  159.3428 C.3     1  UNL1        0.1089
     29 C         140.2697  145.6268  158.9774 C.3     1  UNL1        0.0274
     30 C         140.8853  144.6508  158.0190 C.3     1  UNL1        0.0274
     31 C         139.7347  144.2074  160.7037 C.ar    1  UNL1        0.1549
     32 N         140.2668  145.1363  161.7545 N.ar    1  UNL1       -0.2276
     33 C         139.6371  145.1687  163.1156 C.ar    1  UNL1        0.1019
     34 C         138.4753  144.2722  163.4258 C.ar    1  UNL1        0.0413
     35 C         137.9432  143.3433  162.3751 C.ar    1  UNL1        0.1019
     36 N         138.5728  143.3108  161.0141 N.ar    1  UNL1       -0.2276
     37 C         142.7482  137.9548  156.7522 C.3     1  UNL1        0.1050
     38 C         142.2778  136.5395  156.5928 C.3     1  UNL1        0.1486
     39 F         140.8220  136.7114  156.9108 F       1  UNL1       -0.2386
     40 C         142.3129  135.0644  156.3229 C.3     1  UNL1        0.0368
     41 C         143.5702  135.8759  156.2193 C.3     1  UNL1        0.0368
@<TRIPOS>BOND
     1     7     8    2
     2     8     9   am
     3     1     9    1
     4     1     2    1
     5     2     3    1
     6     3     4    1
     7     4    37    1
     8    37    38    1
     9    38    39    1
    10    38    40    1
    11    40    41    1
    12     4     5    1
    13     5     6    1
    14     6    24    1
    15    24    25    2
    16    24    26   am
    17    26    28    1
    18    28    31    1
    19    31    32   ar
    20    32    33   ar
    21    33    34   ar
    22    34    35   ar
    23    35    36   ar
    24    28    29    1
    25    29    30    1
    26     8    11    1
    27    11    12   ar
    28    12    13   ar
    29    13    16    1
    30    16    17   ar
    31    17    18   ar
    32    18    19   ar
    33    19    20    1
    34    19    21   ar
    35    21    22   ar
    36    22    23    1
    37    13    14   ar
    38    14    15   ar
    39     6     1    1
    40    30    28    1
    41    15    11   ar
    42    41    38    1
    43    36    31   ar
    44    22    16   ar
    45     9    10    1
    46    26    27    1
