@<TRIPOS>MOLECULE
*****
 30 32 0 0 0
SMALL
GASTEIGER

@<TRIPOS>ATOM
      1 C         139.0010  139.9172  167.3930 C.2     1  UNL1        0.4125
      2 O         138.9377  139.4724  168.8241 O.2     1  UNL1       -0.2255
      3 N         139.9626  140.9935  166.9840 N.am    1  UNL1       -0.2037
      4 C         140.0259  141.4383  165.5529 C.ar    1  UNL1        0.0613
      5 C         141.2359  141.1258  164.7233 C.ar    1  UNL1        0.0162
      6 C         141.2992  141.5706  163.2921 C.ar    1  UNL1        0.0127
      7 C         140.1527  142.3279  162.6907 C.ar    1  UNL1        0.0578
      8 CL        140.2160  142.7727  161.2596 Cl      1  UNL1       -0.0822
      9 C         138.9427  142.6404  163.5203 C.ar    1  UNL1        0.0127
     10 C         138.8793  142.1956  164.9514 C.ar    1  UNL1        0.0162
     11 C         140.8607  141.6248  168.0061 C.ar    1  UNL1        0.0613
     12 C         142.2484  141.0950  168.2147 C.ar    1  UNL1        0.0153
     13 C         143.1465  141.7264  169.2369 C.ar    1  UNL1        0.0013
     14 C         142.6569  142.8876  170.0504 C.ar    1  UNL1        0.0001
     15 C         141.2691  143.4175  169.8418 C.ar    1  UNL1        0.0013
     16 C         140.3710  142.7861  168.8197 C.ar    1  UNL1        0.0153
     17 O         138.1029  139.2858  166.3709 O.3     1  UNL1       -0.4341
     18 C         138.4823  137.9761  165.7459 C.3     1  UNL1        0.2100
     19 C         141.2875  137.8904  162.2283 C.3     1  UNL1        0.0297
     20 C         139.8710  138.3492  162.0469 C.3     1  UNL1        0.0026
     21 C         138.9359  138.3777  163.2195 C.3     1  UNL1        0.0038
     22 C         139.4174  137.9475  164.5734 C.3     1  UNL1        0.0439
     23 C         140.8339  137.4888  164.7547 C.3     1  UNL1        0.0038
     24 C         141.7690  137.4603  163.5822 C.3     1  UNL1        0.0026
     25 C         142.2226  137.8619  161.0558 C.3     1  UNL1        0.1426
     26 O         143.6346  138.3436  161.2106 O.3     1  UNL1       -0.3478
     27 C         143.9152  139.8099  161.3557 C.3     1  UNL1        0.1835
     28 O         144.5835  139.5879  163.8566 O.co2   1  UNL1       -0.5466
     29 C         144.6745  140.3140  162.5472 C.2     1  UNL1        0.0801
     30 O         145.5247  141.5441  162.4292 O.co2   1  UNL1       -0.5466
@<TRIPOS>UNITY_ATOM_ATTR
28 1
charge -1
@<TRIPOS>BOND
     1    28    29   ar
     2    29    30   ar
     3    29    27    1
     4    27    26    1
     5    26    25    1
     6    19    25    1
     7    19    20    1
     8    20    21    1
     9    21    22    1
    10    22    18    1
    11    18    17    1
    12    17     1    1
    13     1     2    2
    14     1     3   am
    15     3    11    1
    16    11    12   ar
    17    12    13   ar
    18    13    14   ar
    19    14    15   ar
    20    15    16   ar
    21     3     4    1
    22     4     5   ar
    23     5     6   ar
    24     6     7   ar
    25     7     8    1
    26     7     9   ar
    27     9    10   ar
    28    22    23    1
    29    23    24    1
    30    24    19    1
    31    16    11   ar
    32    10     4   ar
@<TRIPOS>MOLECULE
*****
 30 32 0 0 0
SMALL
GASTEIGER

@<TRIPOS>ATOM
      1 C         142.9530  139.6653  166.9713 C.2     1  UNL1        0.4125
      2 O         142.8606  139.0401  168.3317 O.2     1  UNL1       -0.2255
      3 N         142.6432  141.1221  166.7927 N.am    1  UNL1       -0.2037
      4 C         142.7356  141.7473  165.4324 C.ar    1  UNL1        0.0613
      5 C         144.0778  141.9914  164.8088 C.ar    1  UNL1        0.0162
      6 C         144.1701  142.6166  163.4484 C.ar    1  UNL1        0.0127
      7 C         142.9203  142.9976  162.7116 C.ar    1  UNL1        0.0578
      8 CL        143.0127  143.6228  161.3513 Cl      1  UNL1       -0.0822
      9 C         141.5781  142.7534  163.3353 C.ar    1  UNL1        0.0127
     10 C         141.4857  142.1283  164.6956 C.ar    1  UNL1        0.0162
     11 C         142.2410  141.9537  167.9746 C.ar    1  UNL1        0.0613
     12 C         143.2356  142.2475  169.0582 C.ar    1  UNL1        0.0153
     13 C         142.8334  143.0791  170.2401 C.ar    1  UNL1        0.0013
     14 C         141.4366  143.6168  170.3383 C.ar    1  UNL1        0.0001
     15 C         140.4419  143.3230  169.2546 C.ar    1  UNL1        0.0013
     16 C         140.8441  142.4914  168.0728 C.ar    1  UNL1        0.0153
     17 O         143.3552  138.8337  165.7895 O.3     1  UNL1       -0.4341
     18 C         142.3540  137.9306  165.1323 C.3     1  UNL1        0.2100
     19 C         138.8250  139.6860  162.9609 C.3     1  UNL1        0.0297
     20 C         138.6949  139.2812  164.3993 C.3     1  UNL1        0.0026
     21 C         139.8712  138.6961  165.1231 C.3     1  UNL1        0.0038
     22 C         141.1776  138.5157  164.4085 C.3     1  UNL1        0.0439
     23 C         141.3077  138.9205  162.9700 C.3     1  UNL1        0.0038
     24 C         140.1314  139.5056  162.2462 C.3     1  UNL1        0.0026
     25 C         137.6487  140.2711  162.2371 C.3     1  UNL1        0.1426
     26 O         137.1719  141.6527  162.5744 O.3     1  UNL1       -0.3478
     27 C         137.8978  142.8493  162.0346 C.3     1  UNL1        0.1835
     28 O         138.5694  145.3473  162.2775 O.co2   1  UNL1       -0.5466
     29 C         138.0636  144.0730  162.8861 C.2     1  UNL1        0.0801
     30 O         137.7237  144.0225  164.3462 O.co2   1  UNL1       -0.5466
@<TRIPOS>UNITY_ATOM_ATTR
28 1
charge -1
@<TRIPOS>BOND
     1    28    29   ar
     2    29    30   ar
     3    29    27    1
     4    27    26    1
     5    26    25    1
     6    19    25    1
     7    19    20    1
     8    20    21    1
     9    21    22    1
    10    22    18    1
    11    18    17    1
    12    17     1    1
    13     1     2    2
    14     1     3   am
    15     3    11    1
    16    11    12   ar
    17    12    13   ar
    18    13    14   ar
    19    14    15   ar
    20    15    16   ar
    21     3     4    1
    22     4     5   ar
    23     5     6   ar
    24     6     7   ar
    25     7     8    1
    26     7     9   ar
    27     9    10   ar
    28    22    23    1
    29    23    24    1
    30    24    19    1
    31    16    11   ar
    32    10     4   ar
@<TRIPOS>MOLECULE
*****
 30 32 0 0 0
SMALL
GASTEIGER

@<TRIPOS>ATOM
      1 C         142.3234  139.1530  166.7640 C.2     1  UNL1        0.4125
      2 O         143.1756  139.2180  167.9967 O.2     1  UNL1       -0.2255
      3 N         141.0095  139.8756  166.7216 N.am    1  UNL1       -0.2037
      4 C         140.1573  139.8106  165.4890 C.ar    1  UNL1        0.0613
      5 C         139.6373  138.4893  165.0055 C.ar    1  UNL1        0.0162
      6 C         138.7850  138.4243  163.7728 C.ar    1  UNL1        0.0127
      7 C         138.4528  139.6806  163.0236 C.ar    1  UNL1        0.0578
      8 CL        137.6006  139.6156  161.7909 Cl      1  UNL1       -0.0822
      9 C         138.9729  141.0019  163.5070 C.ar    1  UNL1        0.0127
     10 C         139.8251  141.0669  164.7397 C.ar    1  UNL1        0.0162
     11 C         140.5479  140.6631  167.9119 C.ar    1  UNL1        0.0613
     12 C         141.0444  142.0626  168.1237 C.ar    1  UNL1        0.0153
     13 C         140.5828  142.8501  169.3139 C.ar    1  UNL1        0.0013
     14 C         139.6247  142.2381  170.2924 C.ar    1  UNL1        0.0001
     15 C         139.1281  140.8386  170.0807 C.ar    1  UNL1        0.0013
     16 C         139.5897  140.0511  168.8904 C.ar    1  UNL1        0.0153
     17 O         142.7850  138.3655  165.5738 O.3     1  UNL1       -0.4341
     18 C         143.6985  138.9967  164.5653 C.3     1  UNL1        0.2100
     19 C         142.8975  143.1790  163.1106 C.3     1  UNL1        0.0297
     20 C         142.5322  142.0038  162.2530 C.3     1  UNL1        0.0026
     21 C         142.7992  140.6097  162.7379 C.3     1  UNL1        0.0038
     22 C         143.4315  140.3908  164.0804 C.3     1  UNL1        0.0439
     23 C         143.7968  141.5660  164.9380 C.3     1  UNL1        0.0038
     24 C         143.5298  142.9601  164.4531 C.3     1  UNL1        0.0026
     25 C         142.6305  144.5731  162.6257 C.3     1  UNL1        0.1426
     26 O         141.5969  145.4194  163.3079 O.3     1  UNL1       -0.3478
     27 C         140.1978  144.9052  163.4752 C.3     1  UNL1        0.1835
     28 O         139.2967  146.3480  161.5114 O.co2   1  UNL1       -0.5466
     29 C         139.1762  145.1486  162.4040 C.2     1  UNL1        0.0801
     30 O         138.0342  144.1926  162.2257 O.co2   1  UNL1       -0.5466
@<TRIPOS>UNITY_ATOM_ATTR
28 1
charge -1
@<TRIPOS>BOND
     1    28    29   ar
     2    29    30   ar
     3    29    27    1
     4    27    26    1
     5    26    25    1
     6    19    25    1
     7    19    20    1
     8    20    21    1
     9    21    22    1
    10    22    18    1
    11    18    17    1
    12    17     1    1
    13     1     2    2
    14     1     3   am
    15     3    11    1
    16    11    12   ar
    17    12    13   ar
    18    13    14   ar
    19    14    15   ar
    20    15    16   ar
    21     3     4    1
    22     4     5   ar
    23     5     6   ar
    24     6     7   ar
    25     7     8    1
    26     7     9   ar
    27     9    10   ar
    28    22    23    1
    29    23    24    1
    30    24    19    1
    31    16    11   ar
    32    10     4   ar
@<TRIPOS>MOLECULE
*****
 30 32 0 0 0
SMALL
GASTEIGER

@<TRIPOS>ATOM
      1 C         138.4143  140.2196  165.2333 C.2     1  UNL1        0.4125
      2 O         137.6009  140.7185  164.0760 O.2     1  UNL1       -0.2255
      3 N         139.5556  141.0402  165.7570 N.am    1  UNL1       -0.2037
      4 C         140.3690  140.5414  166.9143 C.ar    1  UNL1        0.0613
      5 C         139.7726  140.5057  168.2902 C.ar    1  UNL1        0.0162
      6 C         140.5862  140.0068  169.4475 C.ar    1  UNL1        0.0127
      7 C         141.9960  139.5437  169.2289 C.ar    1  UNL1        0.0578
      8 CL        142.8094  139.0448  170.3863 Cl      1  UNL1       -0.0822
      9 C         142.5924  139.5793  167.8531 C.ar    1  UNL1        0.0127
     10 C         141.7789  140.0782  166.6958 C.ar    1  UNL1        0.0162
     11 C         139.8834  142.3597  165.1232 C.ar    1  UNL1        0.0613
     12 C         141.0787  142.4843  164.2257 C.ar    1  UNL1        0.0153
     13 C         141.4065  143.8038  163.5920 C.ar    1  UNL1        0.0013
     14 C         140.5389  144.9986  163.8558 C.ar    1  UNL1        0.0001
     15 C         139.3435  144.8740  164.7533 C.ar    1  UNL1        0.0013
     16 C         139.0157  143.5546  165.3871 C.ar    1  UNL1        0.0153
     17 O         138.0865  138.9002  165.8671 O.3     1  UNL1       -0.4341
     18 C         138.6441  137.6324  165.2911 C.3     1  UNL1        0.2100
     19 C         141.8160  137.8131  162.1042 C.3     1  UNL1        0.0297
     20 C         140.3688  137.9371  161.7298 C.3     1  UNL1        0.0026
     21 C         139.3115  137.8768  162.7921 C.3     1  UNL1        0.0038
     22 C         139.7014  137.6926  164.2288 C.3     1  UNL1        0.0439
     23 C         141.1486  137.5687  164.6031 C.3     1  UNL1        0.0038
     24 C         142.2059  137.6289  163.5408 C.3     1  UNL1        0.0026
     25 C         142.8733  137.8733  161.0419 C.3     1  UNL1        0.1426
     26 O         144.1446  138.6294  161.2910 O.3     1  UNL1       -0.3478
     27 C         144.0937  140.0856  161.6473 C.3     1  UNL1        0.1835
     28 O         144.7240  139.9596  164.1647 O.co2   1  UNL1       -0.5466
     29 C         144.8798  140.5994  162.8170 C.2     1  UNL1        0.0801
     30 O         145.8218  141.7531  162.6389 O.co2   1  UNL1       -0.5466
@<TRIPOS>UNITY_ATOM_ATTR
28 1
charge -1
@<TRIPOS>BOND
     1    28    29   ar
     2    29    30   ar
     3    29    27    1
     4    27    26    1
     5    26    25    1
     6    19    25    1
     7    19    20    1
     8    20    21    1
     9    21    22    1
    10    22    18    1
    11    18    17    1
    12    17     1    1
    13     1     2    2
    14     1     3   am
    15     3    11    1
    16    11    12   ar
    17    12    13   ar
    18    13    14   ar
    19    14    15   ar
    20    15    16   ar
    21     3     4    1
    22     4     5   ar
    23     5     6   ar
    24     6     7   ar
    25     7     8    1
    26     7     9   ar
    27     9    10   ar
    28    22    23    1
    29    23    24    1
    30    24    19    1
    31    16    11   ar
    32    10     4   ar
@<TRIPOS>MOLECULE
*****
 30 32 0 0 0
SMALL
GASTEIGER

@<TRIPOS>ATOM
      1 C         142.6455  139.1454  167.1504 C.2     1  UNL1        0.4125
      2 O         143.1930  139.0199  168.5412 O.2     1  UNL1       -0.2255
      3 N         141.4857  140.0576  166.8804 N.am    1  UNL1       -0.2037
      4 C         140.9381  140.1832  165.4896 C.ar    1  UNL1        0.0613
      5 C         140.1522  139.0558  164.8884 C.ar    1  UNL1        0.0162
      6 C         139.6047  139.1814  163.4975 C.ar    1  UNL1        0.0127
      7 C         139.8430  140.4342  162.7079 C.ar    1  UNL1        0.0578
      8 CL        139.2955  140.5598  161.3171 Cl      1  UNL1       -0.0822
      9 C         140.6289  141.5616  163.3091 C.ar    1  UNL1        0.0127
     10 C         141.1765  141.4361  164.6999 C.ar    1  UNL1        0.0162
     11 C         140.8735  140.8443  168.0013 C.ar    1  UNL1        0.0613
     12 C         141.2759  142.2723  168.2225 C.ar    1  UNL1        0.0153
     13 C         140.6637  143.0589  169.3434 C.ar    1  UNL1        0.0013
     14 C         139.6492  142.4177  170.2431 C.ar    1  UNL1        0.0001
     15 C         139.2468  140.9896  170.0219 C.ar    1  UNL1        0.0013
     16 C         139.8589  140.2029  168.9010 C.ar    1  UNL1        0.0153
     17 O         143.2577  138.3587  166.0295 O.3     1  UNL1       -0.4341
     18 C         144.5230  138.8369  165.3812 C.3     1  UNL1        0.2100
     19 C         144.3343  141.2591  161.5935 C.3     1  UNL1        0.0297
     20 C         143.5217  140.0050  161.7230 C.3     1  UNL1        0.0026
     21 C         143.5846  139.1976  162.9856 C.3     1  UNL1        0.0038
     22 C         144.4601  139.6443  164.1187 C.3     1  UNL1        0.0439
     23 C         145.2726  140.8985  163.9892 C.3     1  UNL1        0.0038
     24 C         145.2098  141.7059  162.7266 C.3     1  UNL1        0.0026
     25 C         144.2714  142.0665  160.3309 C.3     1  UNL1        0.1426
     26 O         143.6942  143.4508  160.3538 O.3     1  UNL1       -0.3478
     27 C         142.5576  143.7743  161.2777 C.3     1  UNL1        0.1835
     28 O         141.6555  144.9691  163.4011 O.co2   1  UNL1       -0.5466
     29 C         142.8007  144.6028  162.5043 C.2     1  UNL1        0.0801
     30 O         144.1891  145.0651  162.8341 O.co2   1  UNL1       -0.5466
@<TRIPOS>UNITY_ATOM_ATTR
28 1
charge -1
@<TRIPOS>BOND
     1    28    29   ar
     2    29    30   ar
     3    29    27    1
     4    27    26    1
     5    26    25    1
     6    19    25    1
     7    19    20    1
     8    20    21    1
     9    21    22    1
    10    22    18    1
    11    18    17    1
    12    17     1    1
    13     1     2    2
    14     1     3   am
    15     3    11    1
    16    11    12   ar
    17    12    13   ar
    18    13    14   ar
    19    14    15   ar
    20    15    16   ar
    21     3     4    1
    22     4     5   ar
    23     5     6   ar
    24     6     7   ar
    25     7     8    1
    26     7     9   ar
    27     9    10   ar
    28    22    23    1
    29    23    24    1
    30    24    19    1
    31    16    11   ar
    32    10     4   ar
@<TRIPOS>MOLECULE
*****
 30 32 0 0 0
SMALL
GASTEIGER

@<TRIPOS>ATOM
      1 C         139.7164  139.7662  167.5241 C.2     1  UNL1        0.4125
      2 O         139.0529  139.8595  168.8661 O.2     1  UNL1       -0.2255
      3 N         140.9699  140.5439  167.2515 N.am    1  UNL1       -0.2037
      4 C         141.6334  140.4506  165.9094 C.ar    1  UNL1        0.0613
      5 C         142.1982  139.1422  165.4413 C.ar    1  UNL1        0.0162
      6 C         142.8617  139.0490  164.0993 C.ar    1  UNL1        0.0127
      7 C         142.9604  140.2641  163.2253 C.ar    1  UNL1        0.0578
      8 CL        143.6239  140.1709  161.8833 Cl      1  UNL1       -0.0822
      9 C         142.3955  141.5725  163.6935 C.ar    1  UNL1        0.0127
     10 C         141.7320  141.6657  165.0355 C.ar    1  UNL1        0.0162
     11 C         141.5598  141.4147  168.3209 C.ar    1  UNL1        0.0613
     12 C         140.7696  142.5640  168.8728 C.ar    1  UNL1        0.0153
     13 C         141.3595  143.4348  169.9423 C.ar    1  UNL1        0.0013
     14 C         142.7395  143.1564  170.4597 C.ar    1  UNL1        0.0001
     15 C         143.5298  142.0071  169.9078 C.ar    1  UNL1        0.0013
     16 C         142.9399  141.1362  168.8383 C.ar    1  UNL1        0.0153
     17 O         139.1265  138.8954  166.4547 O.3     1  UNL1       -0.4341
     18 C         138.0214  139.4189  165.5860 C.3     1  UNL1        0.2100
     19 C         138.9511  142.2898  162.2479 C.3     1  UNL1        0.0297
     20 C         138.3786  142.7990  163.5374 C.3     1  UNL1        0.0026
     21 C         138.0686  141.8420  164.6501 C.3     1  UNL1        0.0038
     22 C         138.3313  140.3758  164.4733 C.3     1  UNL1        0.0439
     23 C         138.9039  139.8666  163.1838 C.3     1  UNL1        0.0038
     24 C         139.2138  140.8236  162.0711 C.3     1  UNL1        0.0026
     25 C         139.2610  143.2468  161.1352 C.3     1  UNL1        0.1426
     26 O         139.1178  144.7237  161.3544 O.3     1  UNL1       -0.3478
     27 C         140.3348  145.5687  161.5882 C.3     1  UNL1        0.1835
     28 O         142.7348  144.6083  161.8488 O.co2   1  UNL1       -0.5466
     29 C         141.4433  145.0617  162.4624 C.2     1  UNL1        0.0801
     30 O         141.2603  145.0079  163.9503 O.co2   1  UNL1       -0.5466
@<TRIPOS>UNITY_ATOM_ATTR
28 1
charge -1
@<TRIPOS>BOND
     1    28    29   ar
     2    29    30   ar
     3    29    27    1
     4    27    26    1
     5    26    25    1
     6    19    25    1
     7    19    20    1
     8    20    21    1
     9    21    22    1
    10    22    18    1
    11    18    17    1
    12    17     1    1
    13     1     2    2
    14     1     3   am
    15     3    11    1
    16    11    12   ar
    17    12    13   ar
    18    13    14   ar
    19    14    15   ar
    20    15    16   ar
    21     3     4    1
    22     4     5   ar
    23     5     6   ar
    24     6     7   ar
    25     7     8    1
    26     7     9   ar
    27     9    10   ar
    28    22    23    1
    29    23    24    1
    30    24    19    1
    31    16    11   ar
    32    10     4   ar
@<TRIPOS>MOLECULE
*****
 30 32 0 0 0
SMALL
GASTEIGER

@<TRIPOS>ATOM
      1 C         139.3265  140.7209  166.5601 C.2     1  UNL1        0.4125
      2 O         139.4799  139.7360  167.6809 O.2     1  UNL1       -0.2255
      3 N         140.0632  142.0269  166.6032 N.am    1  UNL1       -0.2037
      4 C         139.9098  143.0119  165.4824 C.ar    1  UNL1        0.0613
      5 C         141.1248  143.5654  164.7988 C.ar    1  UNL1        0.0162
      6 C         140.9714  144.5504  163.6779 C.ar    1  UNL1        0.0127
      7 C         139.6030  144.9819  163.2407 C.ar    1  UNL1        0.0578
      8 CL        139.4496  145.9668  162.1199 Cl      1  UNL1       -0.0822
      9 C         138.3879  144.4284  163.9243 C.ar    1  UNL1        0.0127
     10 C         138.5413  143.4434  165.0452 C.ar    1  UNL1        0.0162
     11 C         140.9532  142.3478  167.7672 C.ar    1  UNL1        0.0613
     12 C         142.3724  141.8623  167.7824 C.ar    1  UNL1        0.0153
     13 C         143.2624  142.1832  168.9464 C.ar    1  UNL1        0.0013
     14 C         142.7333  142.9897  170.0951 C.ar    1  UNL1        0.0001
     15 C         141.3141  143.4753  170.0799 C.ar    1  UNL1        0.0013
     16 C         140.4241  143.1544  168.9160 C.ar    1  UNL1        0.0153
     17 O         138.4364  140.4000  165.3962 O.3     1  UNL1       -0.4341
     18 C         138.8859  139.4158  164.3573 C.3     1  UNL1        0.2100
     19 C         142.9918  139.7696  162.5500 C.3     1  UNL1        0.0297
     20 C         142.7438  138.7953  163.6632 C.3     1  UNL1        0.0026
     21 C         141.3751  138.6774  164.2656 C.3     1  UNL1        0.0038
     22 C         140.2545  139.5337  163.7549 C.3     1  UNL1        0.0439
     23 C         140.5026  140.5080  162.6416 C.3     1  UNL1        0.0038
     24 C         141.8712  140.6259  162.0392 C.3     1  UNL1        0.0026
     25 C         144.3604  139.8875  161.9475 C.3     1  UNL1        0.1426
     26 O         145.1740  141.1276  162.1712 O.3     1  UNL1       -0.3478
     27 C         144.9165  142.3527  161.3449 C.3     1  UNL1        0.1835
     28 O         144.3823  143.9367  163.3339 O.co2   1  UNL1       -0.5466
     29 C         144.1347  143.4957  161.9217 C.2     1  UNL1        0.0801
     30 O         143.1053  144.1975  161.0864 O.co2   1  UNL1       -0.5466
@<TRIPOS>UNITY_ATOM_ATTR
28 1
charge -1
@<TRIPOS>BOND
     1    28    29   ar
     2    29    30   ar
     3    29    27    1
     4    27    26    1
     5    26    25    1
     6    19    25    1
     7    19    20    1
     8    20    21    1
     9    21    22    1
    10    22    18    1
    11    18    17    1
    12    17     1    1
    13     1     2    2
    14     1     3   am
    15     3    11    1
    16    11    12   ar
    17    12    13   ar
    18    13    14   ar
    19    14    15   ar
    20    15    16   ar
    21     3     4    1
    22     4     5   ar
    23     5     6   ar
    24     6     7   ar
    25     7     8    1
    26     7     9   ar
    27     9    10   ar
    28    22    23    1
    29    23    24    1
    30    24    19    1
    31    16    11   ar
    32    10     4   ar
@<TRIPOS>MOLECULE
*****
 30 32 0 0 0
SMALL
GASTEIGER

@<TRIPOS>ATOM
      1 C         139.4350  138.8727  162.3172 C.2     1  UNL1        0.4125
      2 O         139.8073  137.7168  161.4368 O.2     1  UNL1       -0.2255
      3 N         140.0182  140.2304  162.0591 N.am    1  UNL1       -0.2037
      4 C         139.6459  141.3864  162.9395 C.ar    1  UNL1        0.0613
      5 C         138.2166  141.8327  163.0268 C.ar    1  UNL1        0.0162
      6 C         137.8443  142.9887  163.9073 C.ar    1  UNL1        0.0127
      7 C         138.9013  143.6983  164.7004 C.ar    1  UNL1        0.0578
      8 CL        138.5290  144.8542  165.5808 Cl      1  UNL1       -0.0822
      9 C         140.3307  143.2519  164.6131 C.ar    1  UNL1        0.0127
     10 C         140.7030  142.0960  163.7327 C.ar    1  UNL1        0.0162
     11 C         140.9738  140.4321  160.9205 C.ar    1  UNL1        0.0613
     12 C         142.4369  140.1632  161.1127 C.ar    1  UNL1        0.0153
     13 C         143.3924  140.3649  159.9741 C.ar    1  UNL1        0.0013
     14 C         142.8848  140.8355  158.6434 C.ar    1  UNL1        0.0001
     15 C         141.4216  141.1044  158.4512 C.ar    1  UNL1        0.0013
     16 C         140.4661  140.9027  159.5898 C.ar    1  UNL1        0.0153
     17 O         138.4795  138.6710  163.4558 O.3     1  UNL1       -0.4341
     18 C         138.9791  138.1510  164.7710 C.3     1  UNL1        0.2100
     19 C         141.3364  140.8387  167.5042 C.3     1  UNL1        0.0297
     20 C         142.0474  139.8516  166.6267 C.3     1  UNL1        0.0026
     21 C         141.2617  138.9557  165.7156 C.3     1  UNL1        0.0038
     22 C         139.7649  139.0469  165.6821 C.3     1  UNL1        0.0439
     23 C         139.0538  140.0340  166.5596 C.3     1  UNL1        0.0038
     24 C         139.8396  140.9298  167.4706 C.3     1  UNL1        0.0026
     25 C         142.1221  141.7345  168.4152 C.3     1  UNL1        0.1426
     26 O         142.8455  141.1560  169.5951 O.3     1  UNL1       -0.3478
     27 C         142.1311  140.2265  170.5308 C.3     1  UNL1        0.1835
     28 O         140.7608  141.9231  171.9429 O.co2   1  UNL1       -0.5466
     29 C         140.8357  140.6456  171.1604 C.2     1  UNL1        0.0801
     30 O         139.6151  139.7872  171.0074 O.co2   1  UNL1       -0.5466
@<TRIPOS>UNITY_ATOM_ATTR
28 1
charge -1
@<TRIPOS>BOND
     1    28    29   ar
     2    29    30   ar
     3    29    27    1
     4    27    26    1
     5    26    25    1
     6    19    25    1
     7    19    20    1
     8    20    21    1
     9    21    22    1
    10    22    18    1
    11    18    17    1
    12    17     1    1
    13     1     2    2
    14     1     3   am
    15     3    11    1
    16    11    12   ar
    17    12    13   ar
    18    13    14   ar
    19    14    15   ar
    20    15    16   ar
    21     3     4    1
    22     4     5   ar
    23     5     6   ar
    24     6     7   ar
    25     7     8    1
    26     7     9   ar
    27     9    10   ar
    28    22    23    1
    29    23    24    1
    30    24    19    1
    31    16    11   ar
    32    10     4   ar
@<TRIPOS>MOLECULE
*****
 30 32 0 0 0
SMALL
GASTEIGER

@<TRIPOS>ATOM
      1 C         143.2084  138.7767  161.2117 C.2     1  UNL1        0.4125
      2 O         143.9835  138.8476  159.9295 O.2     1  UNL1       -0.2255
      3 N         141.7530  139.1395  161.2293 N.am    1  UNL1       -0.2037
      4 C         140.9778  139.0686  162.5115 C.ar    1  UNL1        0.0613
      5 C         140.5686  140.3307  163.2113 C.ar    1  UNL1        0.0162
      6 C         139.7934  140.2598  164.4936 C.ar    1  UNL1        0.0127
      7 C         139.4275  138.9269  165.0760 C.ar    1  UNL1        0.0578
      8 CL        138.6524  138.8560  166.3582 Cl      1  UNL1       -0.0822
      9 C         139.8368  137.6648  164.3762 C.ar    1  UNL1        0.0127
     10 C         140.6119  137.7356  163.0940 C.ar    1  UNL1        0.0162
     11 C         141.0728  139.5731  159.9647 C.ar    1  UNL1        0.0613
     12 C         141.1496  141.0051  159.5248 C.ar    1  UNL1        0.0153
     13 C         140.4694  141.4387  158.2601 C.ar    1  UNL1        0.0013
     14 C         139.7123  140.4404  157.4354 C.ar    1  UNL1        0.0001
     15 C         139.6355  139.0083  157.8753 C.ar    1  UNL1        0.0013
     16 C         140.3157  138.5747  159.1399 C.ar    1  UNL1        0.0153
     17 O         143.8886  138.3431  162.4763 O.3     1  UNL1       -0.4341
     18 C         144.5272  139.3628  163.3721 C.3     1  UNL1        0.2100
     19 C         142.4747  140.6171  167.1752 C.3     1  UNL1        0.0297
     20 C         143.0334  141.6546  166.2472 C.3     1  UNL1        0.0026
     21 C         143.7176  141.2365  164.9794 C.3     1  UNL1        0.0038
     22 C         143.8430  139.7809  164.6398 C.3     1  UNL1        0.0439
     23 C         143.2842  138.7434  165.5678 C.3     1  UNL1        0.0038
     24 C         142.6001  139.1615  166.8355 C.3     1  UNL1        0.0026
     25 C         141.7905  141.0352  168.4429 C.3     1  UNL1        0.1426
     26 O         141.5747  140.0383  169.5427 O.3     1  UNL1       -0.3478
     27 C         140.6753  140.3755  170.6948 C.3     1  UNL1        0.1835
     28 O         139.3750  142.6087  170.9634 O.co2   1  UNL1       -0.5466
     29 C         140.6051  141.7847  171.2040 C.2     1  UNL1        0.0801
     30 O         141.7650  142.3699  171.9538 O.co2   1  UNL1       -0.5466
@<TRIPOS>UNITY_ATOM_ATTR
28 1
charge -1
@<TRIPOS>BOND
     1    28    29   ar
     2    29    30   ar
     3    29    27    1
     4    27    26    1
     5    26    25    1
     6    19    25    1
     7    19    20    1
     8    20    21    1
     9    21    22    1
    10    22    18    1
    11    18    17    1
    12    17     1    1
    13     1     2    2
    14     1     3   am
    15     3    11    1
    16    11    12   ar
    17    12    13   ar
    18    13    14   ar
    19    14    15   ar
    20    15    16   ar
    21     3     4    1
    22     4     5   ar
    23     5     6   ar
    24     6     7   ar
    25     7     8    1
    26     7     9   ar
    27     9    10   ar
    28    22    23    1
    29    23    24    1
    30    24    19    1
    31    16    11   ar
    32    10     4   ar
