@<TRIPOS>MOLECULE
*****
 23 26 0 0 0
SMALL
GASTEIGER

@<TRIPOS>ATOM
      1 C         141.9778  142.5852  165.6771 C.3     1  UNL1        0.1810
      2 C         140.6006  143.0254  165.2778 C.3     1  UNL1        0.1398
      3 N         140.7399  144.0996  164.2402 N.am    1  UNL1       -0.2745
      4 C         139.6136  144.8230  163.5634 C.2     1  UNL1        0.2412
      5 O         138.1926  144.4900  163.9099 O.2     1  UNL1       -0.2737
      6 C         142.2032  144.3233  163.9983 C.3     1  UNL1        0.0974
      7 C         142.9683  143.3874  164.8863 C.3     1  UNL1        0.0591
      8 C         144.3313  143.8260  164.4391 C.3     1  UNL1        0.0058
      9 C         144.1920  142.7518  165.4767 C.3     1  UNL1        0.0058
     10 C         142.7318  140.1628  166.2371 C.3     1  UNL1        0.2532
     11 N         142.3068  141.5284  166.6895 N.pl3   1  UNL1       -0.1917
     12 C         142.2108  141.8371  168.1542 C.2     1  UNL1        0.3205
     13 N         143.2965  142.6230  168.8278 N.2     1  UNL1        0.0097
     14 C         143.2006  142.9318  170.2924 C.2     1  UNL1        0.4717
     15 N         142.0189  142.4547  171.0837 N.2     1  UNL1        0.0158
     16 C         140.9332  141.6688  170.4102 C.2     1  UNL1        0.3714
     17 N         139.6585  141.0707  170.9275 N.2     1  UNL1       -0.0339
     18 C         138.9668  140.3924  169.7824 C.2     1  UNL1        0.2323
     19 C         139.8138  140.5711  168.5575 C.2     1  UNL1        0.0486
     20 C         141.0292  141.3600  168.9454 C.3     1  UNL1        0.2428
     21 C         139.9081  145.8795  162.5401 C.3     1  UNL1        0.1901
     22 C         139.9609  145.5202  161.0848 C.1     1  UNL1        0.0830
     23 N         140.0136  145.1608  159.6294 N.1     1  UNL1       -0.1954
@<TRIPOS>BOND
     1    10    11    1
     2    11    12    1
     3    12    13    2
     4    13    14    1
     5    14    15    2
     6    15    16    1
     7    16    17    2
     8    17    18    1
     9    18    19    2
    10    19    20    1
    11     1    11    1
    12     1     2    1
    13     2     3    1
    14     3     4   am
    15     4     5    2
    16     4    21    1
    17    21    22    1
    18    22    23    3
    19     3     6    1
    20     6     7    1
    21     7     8    1
    22     8     9    1
    23    20    12    1
    24     7     1    1
    25    20    16    1
    26     9     7    1
@<TRIPOS>MOLECULE
*****
 23 26 0 0 0
SMALL
GASTEIGER

@<TRIPOS>ATOM
      1 C         141.3585  142.0593  165.6887 C.3     1  UNL1        0.1810
      2 C         140.0851  142.6039  165.1125 C.3     1  UNL1        0.1398
      3 N         140.4340  143.7725  164.2393 N.am    1  UNL1       -0.2745
      4 C         139.4642  144.6155  163.4655 C.2     1  UNL1        0.2412
      5 O         137.9956  144.3164  163.5264 O.2     1  UNL1       -0.2737
      6 C         141.9230  143.9502  164.2758 C.3     1  UNL1        0.0974
      7 C         142.4943  142.8914  165.1715 C.3     1  UNL1        0.0591
      8 C         143.9265  143.3086  165.0138 C.3     1  UNL1        0.0058
      9 C         143.5776  142.1399  165.8871 C.3     1  UNL1        0.0058
     10 C         142.1920  139.6472  166.1756 C.3     1  UNL1        0.2532
     11 N         141.4754  140.8882  166.6187 N.pl3   1  UNL1       -0.1917
     12 C         140.8757  140.9582  167.9919 C.2     1  UNL1        0.3205
     13 N         139.5715  140.2741  168.2765 N.2     1  UNL1        0.0097
     14 C         138.9719  140.3440  169.6495 C.2     1  UNL1        0.4717
     15 N         139.6764  141.0982  170.7382 N.2     1  UNL1        0.0158
     16 C         140.9806  141.7823  170.4536 C.2     1  UNL1        0.3714
     17 N         141.8982  142.5936  171.3194 N.2     1  UNL1       -0.0339
     18 C         143.0650  143.0251  170.4813 C.2     1  UNL1        0.2323
     19 C         142.8685  142.4804  169.0976 C.2     1  UNL1        0.0486
     20 C         141.5802  141.7123  169.0804 C.3     1  UNL1        0.2428
     21 C         139.9629  145.7576  162.6306 C.3     1  UNL1        0.1901
     22 C         139.9915  145.6375  161.1357 C.1     1  UNL1        0.0830
     23 N         140.0202  145.5175  159.6408 N.1     1  UNL1       -0.1954
@<TRIPOS>BOND
     1    10    11    1
     2    11    12    1
     3    12    13    2
     4    13    14    1
     5    14    15    2
     6    15    16    1
     7    16    17    2
     8    17    18    1
     9    18    19    2
    10    19    20    1
    11     1    11    1
    12     1     2    1
    13     2     3    1
    14     3     4   am
    15     4     5    2
    16     4    21    1
    17    21    22    1
    18    22    23    3
    19     3     6    1
    20     6     7    1
    21     7     8    1
    22     8     9    1
    23    20    12    1
    24     7     1    1
    25    20    16    1
    26     9     7    1
@<TRIPOS>MOLECULE
*****
 23 26 0 0 0
SMALL
GASTEIGER

@<TRIPOS>ATOM
      1 C         140.3555  140.5575  165.4191 C.3     1  UNL1        0.1810
      2 C         141.4970  141.0151  166.2779 C.3     1  UNL1        0.1398
      3 N         141.2232  140.5754  167.6856 N.am    1  UNL1       -0.2745
      4 C         142.1053  140.8218  168.8735 C.2     1  UNL1        0.2412
      5 O         143.3944  141.5706  168.7081 O.2     1  UNL1       -0.2737
      6 C         139.9125  139.8462  167.6968 C.3     1  UNL1        0.0974
      7 C         139.3762  139.8351  166.2960 C.3     1  UNL1        0.0591
      8 C         138.1228  139.0749  166.6140 C.3     1  UNL1        0.0058
      9 C         138.3966  139.5145  165.2062 C.3     1  UNL1        0.0058
     10 C         140.6315  139.7110  162.9783 C.3     1  UNL1        0.2532
     11 N         140.2175  140.7829  163.9425 N.pl3   1  UNL1       -0.1917
     12 C         139.6655  142.0801  163.4301 C.2     1  UNL1        0.3205
     13 N         138.2347  142.1637  162.9877 N.2     1  UNL1        0.0097
     14 C         137.6827  143.4609  162.4753 C.2     1  UNL1        0.4717
     15 N         138.5615  144.6745  162.4054 N.2     1  UNL1        0.0158
     16 C         139.9923  144.5909  162.8478 C.2     1  UNL1        0.3714
     17 N         141.0899  145.6122  162.8940 N.2     1  UNL1       -0.0339
     18 C         142.3203  144.9462  163.4349 C.2     1  UNL1        0.2323
     19 C         141.9831  143.5133  163.7230 C.2     1  UNL1        0.0486
     20 C         140.5443  143.2937  163.3602 C.3     1  UNL1        0.2428
     21 C         141.6983  140.3194  170.2270 C.3     1  UNL1        0.1901
     22 C         141.0723  141.2557  171.2177 C.1     1  UNL1        0.0830
     23 N         140.4464  142.1921  172.2083 N.1     1  UNL1       -0.1954
@<TRIPOS>BOND
     1    10    11    1
     2    11    12    1
     3    12    13    2
     4    13    14    1
     5    14    15    2
     6    15    16    1
     7    16    17    2
     8    17    18    1
     9    18    19    2
    10    19    20    1
    11     1    11    1
    12     1     2    1
    13     2     3    1
    14     3     4   am
    15     4     5    2
    16     4    21    1
    17    21    22    1
    18    22    23    3
    19     3     6    1
    20     6     7    1
    21     7     8    1
    22     8     9    1
    23    20    12    1
    24     7     1    1
    25    20    16    1
    26     9     7    1
@<TRIPOS>MOLECULE
*****
 23 26 0 0 0
SMALL
GASTEIGER

@<TRIPOS>ATOM
      1 C         139.6594  139.7410  164.7549 C.3     1  UNL1        0.1810
      2 C         139.0080  139.6600  166.1036 C.3     1  UNL1        0.1398
      3 N         140.0496  139.9605  167.1403 N.am    1  UNL1       -0.2745
      4 C         139.8339  139.9892  168.6244 C.2     1  UNL1        0.2412
      5 O         138.4753  139.6999  169.1906 O.2     1  UNL1       -0.2737
      6 C         141.3448  140.2273  166.4322 C.3     1  UNL1        0.0974
      7 C         141.1036  140.0917  164.9580 C.3     1  UNL1        0.0591
      8 C         142.5107  140.4003  164.5399 C.3     1  UNL1        0.0058
      9 C         141.4691  140.0998  163.5032 C.3     1  UNL1        0.0058
     10 C         138.5638  138.1277  163.0381 C.3     1  UNL1        0.2532
     11 N         138.9850  139.5117  163.4348 N.pl3   1  UNL1       -0.1917
     12 C         138.7317  140.6663  162.5113 C.2     1  UNL1        0.3205
     13 N         138.8969  140.4926  161.0306 N.2     1  UNL1        0.0097
     14 C         138.6437  141.6471  160.1072 C.2     1  UNL1        0.4717
     15 N         138.2253  142.9755  160.6645 N.2     1  UNL1        0.0158
     16 C         138.0602  143.1492  162.1452 C.2     1  UNL1        0.3714
     17 N         137.6616  144.3308  162.9788 N.2     1  UNL1       -0.0339
     18 C         137.6684  143.9064  164.4175 C.2     1  UNL1        0.2323
     19 C         138.0713  142.4626  164.4730 C.2     1  UNL1        0.0486
     20 C         138.3134  141.9946  163.0686 C.3     1  UNL1        0.2428
     21 C         140.9767  140.3072  169.5424 C.3     1  UNL1        0.1901
     22 C         140.7646  141.2150  170.7176 C.1     1  UNL1        0.0830
     23 N         140.5525  142.1227  171.8927 N.1     1  UNL1       -0.1954
@<TRIPOS>BOND
     1    10    11    1
     2    11    12    1
     3    12    13    2
     4    13    14    1
     5    14    15    2
     6    15    16    1
     7    16    17    2
     8    17    18    1
     9    18    19    2
    10    19    20    1
    11     1    11    1
    12     1     2    1
    13     2     3    1
    14     3     4   am
    15     4     5    2
    16     4    21    1
    17    21    22    1
    18    22    23    3
    19     3     6    1
    20     6     7    1
    21     7     8    1
    22     8     9    1
    23    20    12    1
    24     7     1    1
    25    20    16    1
    26     9     7    1
@<TRIPOS>MOLECULE
*****
 23 26 0 0 0
SMALL
GASTEIGER

@<TRIPOS>ATOM
      1 C         139.8616  140.9920  165.5628 C.3     1  UNL1        0.1810
      2 C         141.0880  141.6618  166.1079 C.3     1  UNL1        0.1398
      3 N         141.3052  141.1641  167.5061 N.am    1  UNL1       -0.2745
      4 C         142.4191  141.5722  168.4241 C.2     1  UNL1        0.2412
      5 O         143.4443  142.5658  167.9640 O.2     1  UNL1       -0.2737
      6 C         140.2131  140.1867  167.8251 C.3     1  UNL1        0.0974
      7 C         139.3209  140.0803  166.6241 C.3     1  UNL1        0.0591
      8 C         138.3738  139.0815  167.2203 C.3     1  UNL1        0.0058
      9 C         138.1566  139.5792  165.8220 C.3     1  UNL1        0.0058
     10 C         138.7509  142.5451  163.8009 C.3     1  UNL1        0.2532
     11 N         139.2783  141.1977  164.1961 N.pl3   1  UNL1       -0.1917
     12 C         139.2225  140.0560  163.2248 C.2     1  UNL1        0.3205
     13 N         137.9346  139.7232  162.5318 N.2     1  UNL1        0.0097
     14 C         137.8787  138.5816  161.5605 C.2     1  UNL1        0.4717
     15 N         139.1109  137.7726  161.2823 N.2     1  UNL1        0.0158
     16 C         140.3989  138.1054  161.9753 C.2     1  UNL1        0.3714
     17 N         141.7654  137.4911  161.9030 N.2     1  UNL1       -0.0339
     18 C         142.6658  138.2532  162.8295 C.2     1  UNL1        0.2323
     19 C         141.8557  139.3384  163.4746 C.2     1  UNL1        0.0486
     20 C         140.4547  139.2471  162.9466 C.3     1  UNL1        0.2428
     21 C         142.5078  140.9868  169.8024 C.3     1  UNL1        0.1901
     22 C         141.6269  141.5102  170.8978 C.1     1  UNL1        0.0830
     23 N         140.7460  142.0337  171.9932 N.1     1  UNL1       -0.1954
@<TRIPOS>BOND
     1    10    11    1
     2    11    12    1
     3    12    13    2
     4    13    14    1
     5    14    15    2
     6    15    16    1
     7    16    17    2
     8    17    18    1
     9    18    19    2
    10    19    20    1
    11     1    11    1
    12     1     2    1
    13     2     3    1
    14     3     4   am
    15     4     5    2
    16     4    21    1
    17    21    22    1
    18    22    23    3
    19     3     6    1
    20     6     7    1
    21     7     8    1
    22     8     9    1
    23    20    12    1
    24     7     1    1
    25    20    16    1
    26     9     7    1
@<TRIPOS>MOLECULE
*****
 23 26 0 0 0
SMALL
GASTEIGER

@<TRIPOS>ATOM
      1 C         141.3962  140.8781  165.7376 C.3     1  UNL1        0.1810
      2 C         141.9019  142.2428  165.3745 C.3     1  UNL1        0.1398
      3 N         141.3438  142.6010  164.0291 N.am    1  UNL1       -0.2745
      4 C         141.5926  143.8783  163.2830 C.2     1  UNL1        0.2412
      5 O         142.4709  144.9372  163.8808 O.2     1  UNL1       -0.2737
      6 C         140.4933  141.4577  163.5607 C.3     1  UNL1        0.0974
      7 C         140.5257  140.3929  164.6166 C.3     1  UNL1        0.0591
      8 C         139.6292  139.4301  163.8960 C.3     1  UNL1        0.0058
      9 C         140.1873  139.0719  165.2415 C.3     1  UNL1        0.0058
     10 C         142.7104  139.0154  166.9840 C.3     1  UNL1        0.2532
     11 N         141.7067  140.1300  167.0002 N.pl3   1  UNL1       -0.1917
     12 C         141.0135  140.4965  168.2789 C.2     1  UNL1        0.3205
     13 N         139.6683  139.9137  168.5964 N.2     1  UNL1        0.0097
     14 C         138.9750  140.2802  169.8751 C.2     1  UNL1        0.4717
     15 N         139.6270  141.2294  170.8364 N.2     1  UNL1        0.0158
     16 C         140.9722  141.8122  170.5189 C.2     1  UNL1        0.3714
     17 N         141.8546  142.7666  171.2675 N.2     1  UNL1       -0.0339
     18 C         143.0932  142.9900  170.4514 C.2     1  UNL1        0.2323
     19 C         142.9763  142.1736  169.1985 C.2     1  UNL1        0.0486
     20 C         141.6654  141.4457  169.2401 C.3     1  UNL1        0.2428
     21 C         140.9630  144.0968  161.9391 C.3     1  UNL1        0.1901
     22 C         140.2013  145.3594  161.6640 C.1     1  UNL1        0.0830
     23 N         139.4396  146.6219  161.3889 N.1     1  UNL1       -0.1954
@<TRIPOS>BOND
     1    10    11    1
     2    11    12    1
     3    12    13    2
     4    13    14    1
     5    14    15    2
     6    15    16    1
     7    16    17    2
     8    17    18    1
     9    18    19    2
    10    19    20    1
    11     1    11    1
    12     1     2    1
    13     2     3    1
    14     3     4   am
    15     4     5    2
    16     4    21    1
    17    21    22    1
    18    22    23    3
    19     3     6    1
    20     6     7    1
    21     7     8    1
    22     8     9    1
    23    20    12    1
    24     7     1    1
    25    20    16    1
    26     9     7    1
@<TRIPOS>MOLECULE
*****
 23 26 0 0 0
SMALL
GASTEIGER

@<TRIPOS>ATOM
      1 C         141.0800  139.3597  165.6062 C.3     1  UNL1        0.1810
      2 C         141.9864  139.6200  166.7727 C.3     1  UNL1        0.1398
      3 N         141.1297  139.8842  167.9753 N.am    1  UNL1       -0.2745
      4 C         141.6224  140.1915  169.3584 C.2     1  UNL1        0.2412
      5 O         143.0957  140.2556  169.6328 O.2     1  UNL1       -0.2737
      6 C         139.6940  139.7873  167.5520 C.3     1  UNL1        0.0974
      7 C         139.6633  139.4631  166.0879 C.3     1  UNL1        0.0591
      8 C         138.1686  139.4326  165.9654 C.3     1  UNL1        0.0058
      9 C         139.0252  139.1683  164.7627 C.3     1  UNL1        0.0058
     10 C         141.5272  137.6310  163.7189 C.3     1  UNL1        0.2532
     11 N         141.5143  139.0503  164.2041 N.pl3   1  UNL1       -0.1917
     12 C         141.9356  140.1602  163.2873 C.2     1  UNL1        0.3205
     13 N         140.9597  140.7290  162.3003 N.2     1  UNL1        0.0097
     14 C         141.3810  141.8388  161.3835 C.2     1  UNL1        0.4717
     15 N         142.7783  142.3801  161.4536 N.2     1  UNL1        0.0158
     16 C         143.7541  141.8114  162.4407 C.2     1  UNL1        0.3714
     17 N         145.1873  142.1393  162.7378 N.2     1  UNL1       -0.0339
     18 C         145.6518  141.2320  163.8383 C.2     1  UNL1        0.2323
     19 C         144.5056  140.3434  164.2213 C.2     1  UNL1        0.0486
     20 C         143.3328  140.7014  163.3575 C.3     1  UNL1        0.2428
     21 C         140.6418  140.4347  170.4671 C.3     1  UNL1        0.1901
     22 C         140.0965  141.8130  170.6973 C.1     1  UNL1        0.0830
     23 N         139.5512  143.1913  170.9275 N.1     1  UNL1       -0.1954
@<TRIPOS>BOND
     1    10    11    1
     2    11    12    1
     3    12    13    2
     4    13    14    1
     5    14    15    2
     6    15    16    1
     7    16    17    2
     8    17    18    1
     9    18    19    2
    10    19    20    1
    11     1    11    1
    12     1     2    1
    13     2     3    1
    14     3     4   am
    15     4     5    2
    16     4    21    1
    17    21    22    1
    18    22    23    3
    19     3     6    1
    20     6     7    1
    21     7     8    1
    22     8     9    1
    23    20    12    1
    24     7     1    1
    25    20    16    1
    26     9     7    1
@<TRIPOS>MOLECULE
*****
 23 26 0 0 0
SMALL
GASTEIGER

@<TRIPOS>ATOM
      1 C         141.8973  141.4952  164.8806 C.3     1  UNL1        0.1810
      2 C         141.1211  140.7692  165.9390 C.3     1  UNL1        0.1398
      3 N         141.7446  141.0811  167.2671 N.am    1  UNL1       -0.2745
      4 C         141.2868  140.5649  168.5990 C.2     1  UNL1        0.2412
      5 O         140.1025  139.6480  168.6813 O.2     1  UNL1       -0.2737
      6 C         142.9061  141.9999  167.0295 C.3     1  UNL1        0.0974
      7 C         143.0005  142.2559  165.5546 C.3     1  UNL1        0.0591
      8 C         144.1946  143.1607  165.6286 C.3     1  UNL1        0.0058
      9 C         143.5711  142.8488  164.3004 C.3     1  UNL1        0.0058
     10 C         142.6451  140.9158  162.4608 C.3     1  UNL1        0.2532
     11 N         141.6191  141.4658  163.4068 N.pl3   1  UNL1       -0.1917
     12 C         140.3150  141.9862  162.8792 C.2     1  UNL1        0.3205
     13 N         139.1773  141.0417  162.6272 N.2     1  UNL1        0.0097
     14 C         137.8733  141.5621  162.0996 C.2     1  UNL1        0.4717
     15 N         137.7067  143.0272  161.8240 N.2     1  UNL1        0.0158
     16 C         138.8444  143.9717  162.0759 C.2     1  UNL1        0.3714
     17 N         138.9746  145.4556  161.8999 N.2     1  UNL1       -0.0339
     18 C         140.3593  145.8523  162.3187 C.2     1  UNL1        0.2323
     19 C         141.0848  144.6135  162.7536 C.2     1  UNL1        0.0486
     20 C         140.1485  143.4512  162.6036 C.3     1  UNL1        0.2428
     21 C         142.0133  140.9654  169.8487 C.3     1  UNL1        0.1901
     22 C         141.2561  141.5612  170.9983 C.1     1  UNL1        0.0830
     23 N         140.4988  142.1570  172.1479 N.1     1  UNL1       -0.1954
@<TRIPOS>BOND
     1    10    11    1
     2    11    12    1
     3    12    13    2
     4    13    14    1
     5    14    15    2
     6    15    16    1
     7    16    17    2
     8    17    18    1
     9    18    19    2
    10    19    20    1
    11     1    11    1
    12     1     2    1
    13     2     3    1
    14     3     4   am
    15     4     5    2
    16     4    21    1
    17    21    22    1
    18    22    23    3
    19     3     6    1
    20     6     7    1
    21     7     8    1
    22     8     9    1
    23    20    12    1
    24     7     1    1
    25    20    16    1
    26     9     7    1
@<TRIPOS>MOLECULE
*****
 23 26 0 0 0
SMALL
GASTEIGER

@<TRIPOS>ATOM
      1 C         138.3871  139.5894  165.3149 C.3     1  UNL1        0.1810
      2 C         138.0406  140.9678  164.8354 C.3     1  UNL1        0.1398
      3 N         138.2356  141.0040  163.3486 N.am    1  UNL1       -0.2745
      4 C         138.0042  142.1884  162.4577 C.2     1  UNL1        0.2412
      5 O         137.5341  143.4869  163.0432 O.2     1  UNL1       -0.2737
      6 C         138.7027  139.6480  162.9092 C.3     1  UNL1        0.0974
      7 C         138.7963  138.7738  164.1244 C.3     1  UNL1        0.0591
      8 C         139.2643  137.5469  163.3992 C.3     1  UNL1        0.0058
      9 C         139.0692  137.5106  164.8861 C.3     1  UNL1        0.0058
     10 C         137.3542  138.0461  167.1319 C.3     1  UNL1        0.2532
     11 N         138.3337  139.1107  166.7355 N.pl3   1  UNL1       -0.1917
     12 C         139.2600  139.6965  167.7596 C.2     1  UNL1        0.3205
     13 N         138.7862  139.9048  169.1675 N.2     1  UNL1        0.0097
     14 C         139.7124  140.4906  170.1916 C.2     1  UNL1        0.4717
     15 N         141.1125  140.8682  169.8079 N.2     1  UNL1        0.0158
     16 C         141.5863  140.6599  168.4000 C.2     1  UNL1        0.3714
     17 N         142.9015  140.9339  167.7328 N.2     1  UNL1       -0.0339
     18 C         142.7881  140.5174  166.2963 C.2     1  UNL1        0.2323
     19 C         141.4028  139.9860  166.0757 C.2     1  UNL1        0.0486
     20 C         140.6601  140.0741  167.3759 C.3     1  UNL1        0.2428
     21 C         138.2429  142.0743  160.9812 C.3     1  UNL1        0.1901
     22 C         138.9923  143.1530  160.2569 C.1     1  UNL1        0.0830
     23 N         139.7417  144.2318  159.5326 N.1     1  UNL1       -0.1954
@<TRIPOS>BOND
     1    10    11    1
     2    11    12    1
     3    12    13    2
     4    13    14    1
     5    14    15    2
     6    15    16    1
     7    16    17    2
     8    17    18    1
     9    18    19    2
    10    19    20    1
    11     1    11    1
    12     1     2    1
    13     2     3    1
    14     3     4   am
    15     4     5    2
    16     4    21    1
    17    21    22    1
    18    22    23    3
    19     3     6    1
    20     6     7    1
    21     7     8    1
    22     8     9    1
    23    20    12    1
    24     7     1    1
    25    20    16    1
    26     9     7    1
