@<TRIPOS>MOLECULE
*****
 34 38 0 0 0
SMALL
GASTEIGER

@<TRIPOS>ATOM
      1 N         144.0394  142.2450  158.9531 N.ar    1  UNL1       -0.1925
      2 N         143.2738  143.5144  159.1815 N.ar    1  UNL1       -0.1609
      3 C         142.1776  143.5553  160.2047 C.ar    1  UNL1        0.1212
      4 C         141.8472  142.3268  160.9993 C.ar    1  UNL1        0.0321
      5 C         140.8272  142.0670  162.0681 C.ar    1  UNL1        0.0087
      6 C         140.9626  140.6369  162.5001 C.ar    1  UNL1        0.0297
      7 S         142.0661  140.0129  161.6983 S.2     1  UNL1       -0.0821
      8 C         142.6129  141.0573  160.7708 C.ar    1  UNL1        0.0889
      9 C         143.7090  141.0164  159.7477 C.ar    1  UNL1        0.2864
     10 O         144.4747  139.7470  159.5192 O.2     1  UNL1       -0.2646
     11 C         147.3280  142.1222  155.8837 C.ar    1  UNL1        0.1318
     12 C         146.0230  141.4340  155.6127 C.ar    1  UNL1        0.0359
     13 C         144.9269  141.4749  156.6358 C.ar    1  UNL1        0.0237
     14 C         145.1356  142.2040  157.9299 C.ar    1  UNL1        0.1052
     15 C         146.4406  142.8922  158.2010 C.ar    1  UNL1        0.1195
     16 N         147.5367  142.8513  157.1779 N.ar    1  UNL1       -0.2276
     17 C         150.5774  141.7293  153.7976 C.3     1  UNL1        0.0758
     18 C         149.6446  142.3072  152.7750 C.3     1  UNL1        0.0389
     19 C         148.3137  142.5248  153.4320 C.3     1  UNL1        0.0936
     20 N         148.4242  142.0813  154.8607 N.pl3   1  UNL1       -0.2918
     21 C         149.8232  141.5896  155.0866 C.3     1  UNL1        0.1078
     22 C         153.1014  142.3387  153.8865 C.3     1  UNL1        0.0859
     23 N         152.0126  141.3565  153.5709 N.3     1  UNL1       -0.2960
     24 H         152.1934  140.5255  154.1341 H       1  UNL1        0.1233
     25 C         140.1389  139.9512  163.5495 C.ar    1  UNL1        0.0060
     26 C         139.4566  140.7587  164.6136 C.ar    1  UNL1        0.0004
     27 C         138.6329  140.0729  165.6631 C.ar    1  UNL1        0.0039
     28 C         138.4917  138.5797  165.6485 C.ar    1  UNL1        0.0714
     29 C         139.1740  137.7722  164.5844 C.ar    1  UNL1        0.0039
     30 C         139.9977  138.4580  163.5350 C.ar    1  UNL1        0.0004
     31 C         137.6680  137.8940  166.6980 C.3     1  UNL1        0.4186
     32 F         136.8444  137.2083  167.7474 F       1  UNL1       -0.1659
     33 F         137.3839  139.2191  167.3409 F       1  UNL1       -0.1659
     34 F         137.9522  136.5688  166.0551 F       1  UNL1       -0.1659
@<TRIPOS>BOND
     1    22    23    1
     2    17    23    1
     3    17    18    1
     4    18    19    1
     5    19    20    1
     6    20    11    1
     7    11    12   ar
     8    12    13   ar
     9    13    14   ar
    10    14     1    1
    11     1     2   ar
    12     2     3   ar
    13     3     4   ar
    14     4     5   ar
    15     5     6   ar
    16     6    25    1
    17    25    26   ar
    18    26    27   ar
    19    27    28   ar
    20    28    31    1
    21    31    32    1
    22    31    33    1
    23    31    34    1
    24    28    29   ar
    25    29    30   ar
    26     6     7   ar
    27     7     8   ar
    28     8     9   ar
    29     9    10    2
    30    14    15   ar
    31    15    16   ar
    32    20    21    1
    33    21    17    1
    34    16    11   ar
    35     9     1   ar
    36     8     4   ar
    37    30    25   ar
    38    23    24    1
@<TRIPOS>MOLECULE
*****
 34 38 0 0 0
SMALL
GASTEIGER

@<TRIPOS>ATOM
      1 N         141.0498  139.5222  159.9296 N.ar    1  UNL1       -0.1925
      2 N         140.8370  140.9863  159.6831 N.ar    1  UNL1       -0.1609
      3 C         140.6527  141.9227  160.8405 C.ar    1  UNL1        0.1212
      4 C         140.6813  141.3948  162.2442 C.ar    1  UNL1        0.0321
      5 C         140.5301  142.0715  163.5743 C.ar    1  UNL1        0.0087
      6 C         140.6494  141.0255  164.6427 C.ar    1  UNL1        0.0297
      7 S         140.8744  139.7023  163.9730 S.2     1  UNL1       -0.0821
      8 C         140.8941  139.9305  162.4906 C.ar    1  UNL1        0.0889
      9 C         141.0783  138.9942  161.3333 C.ar    1  UNL1        0.2864
     10 O         141.2911  137.5300  161.5797 O.2     1  UNL1       -0.2646
     11 C         141.6026  136.7131  156.4577 C.ar    1  UNL1        0.1318
     12 C         140.2441  137.2720  156.7612 C.ar    1  UNL1        0.0359
     13 C         140.0599  138.2084  157.9185 C.ar    1  UNL1        0.0237
     14 C         141.2340  138.5858  158.7722 C.ar    1  UNL1        0.1052
     15 C         142.5925  138.0268  158.4688 C.ar    1  UNL1        0.1195
     16 N         142.7768  137.0905  157.3115 N.ar    1  UNL1       -0.2276
     17 C         142.2267  133.7779  153.9959 C.3     1  UNL1        0.0758
     18 C         141.9143  134.8937  153.0434 C.3     1  UNL1        0.0389
     19 C         141.6424  136.1291  153.8496 C.3     1  UNL1        0.0936
     20 N         141.7869  135.7767  155.3005 N.pl3   1  UNL1       -0.2918
     21 C         142.1480  134.3236  155.3909 C.3     1  UNL1        0.1078
     22 C         143.4695  131.5507  154.4911 C.3     1  UNL1        0.0859
     23 N         142.5595  132.3645  153.6195 N.3     1  UNL1       -0.2960
     24 H         141.6755  131.8588  153.5636 H       1  UNL1        0.1233
     25 C         140.5595  141.2613  166.1213 C.ar    1  UNL1        0.0060
     26 C         140.7752  142.6383  166.6757 C.ar    1  UNL1        0.0004
     27 C         140.6853  142.8739  168.1544 C.ar    1  UNL1        0.0039
     28 C         140.3797  141.7327  169.0786 C.ar    1  UNL1        0.0714
     29 C         140.1640  140.3557  168.5242 C.ar    1  UNL1        0.0039
     30 C         140.2539  140.1201  167.0456 C.ar    1  UNL1        0.0004
     31 C         140.2899  141.9685  170.5573 C.3     1  UNL1        0.4186
     32 F         140.2000  142.2043  172.0358 F       1  UNL1       -0.1659
     33 F         140.9178  140.6297  170.8089 F       1  UNL1       -0.1659
     34 F         139.6619  143.3073  170.3055 F       1  UNL1       -0.1659
@<TRIPOS>BOND
     1    22    23    1
     2    17    23    1
     3    17    18    1
     4    18    19    1
     5    19    20    1
     6    20    11    1
     7    11    12   ar
     8    12    13   ar
     9    13    14   ar
    10    14     1    1
    11     1     2   ar
    12     2     3   ar
    13     3     4   ar
    14     4     5   ar
    15     5     6   ar
    16     6    25    1
    17    25    26   ar
    18    26    27   ar
    19    27    28   ar
    20    28    31    1
    21    31    32    1
    22    31    33    1
    23    31    34    1
    24    28    29   ar
    25    29    30   ar
    26     6     7   ar
    27     7     8   ar
    28     8     9   ar
    29     9    10    2
    30    14    15   ar
    31    15    16   ar
    32    20    21    1
    33    21    17    1
    34    16    11   ar
    35     9     1   ar
    36     8     4   ar
    37    30    25   ar
    38    23    24    1
@<TRIPOS>MOLECULE
*****
 34 38 0 0 0
SMALL
GASTEIGER

@<TRIPOS>ATOM
      1 N         139.8297  143.5885  160.3124 N.ar    1  UNL1       -0.1925
      2 N         138.4385  143.2409  160.7524 N.ar    1  UNL1       -0.1609
      3 C         138.2075  142.6489  162.1112 C.ar    1  UNL1        0.1212
      4 C         139.3678  142.4045  163.0298 C.ar    1  UNL1        0.0321
      5 C         139.4482  141.8378  164.4163 C.ar    1  UNL1        0.0087
      6 C         140.8891  141.8351  164.8331 C.ar    1  UNL1        0.0297
      7 S         141.6993  142.4001  163.7043 S.2     1  UNL1       -0.0821
      8 C         140.7591  142.7520  162.5897 C.ar    1  UNL1        0.0889
      9 C         140.9900  143.3440  161.2310 C.ar    1  UNL1        0.2864
     10 O         142.3812  143.6916  160.7909 O.2     1  UNL1       -0.2646
     11 C         140.5227  145.3644  156.2360 C.ar    1  UNL1        0.1318
     12 C         140.4924  146.2514  157.4453 C.ar    1  UNL1        0.0359
     13 C         140.2614  145.6594  158.8041 C.ar    1  UNL1        0.0237
     14 C         140.0607  144.1805  158.9536 C.ar    1  UNL1        0.1052
     15 C         140.0910  143.2935  157.7443 C.ar    1  UNL1        0.1195
     16 N         140.3220  143.8854  156.3856 N.ar    1  UNL1       -0.2276
     17 C         140.6434  147.4310  152.9528 C.3     1  UNL1        0.0758
     18 C         141.5750  146.3035  152.6200 C.3     1  UNL1        0.0389
     19 C         141.6432  145.3920  153.8094 C.3     1  UNL1        0.0936
     20 N         140.7537  145.9563  154.8773 N.pl3   1  UNL1       -0.2918
     21 C         140.1358  147.2165  154.3479 C.3     1  UNL1        0.1078
     22 C         139.8238  149.8756  152.6335 C.3     1  UNL1        0.0859
     23 N         140.2827  148.5726  152.0491 N.3     1  UNL1       -0.2960
     24 H         141.1097  148.7766  151.4880 H       1  UNL1        0.1233
     25 C         141.4257  141.3521  166.1480 C.ar    1  UNL1        0.0060
     26 C         141.3702  142.2431  167.3535 C.ar    1  UNL1        0.0004
     27 C         141.9068  141.7600  168.6683 C.ar    1  UNL1        0.0039
     28 C         142.4989  140.3862  168.7777 C.ar    1  UNL1        0.0714
     29 C         142.5544  139.4953  167.5722 C.ar    1  UNL1        0.0039
     30 C         142.0177  139.9783  166.2574 C.ar    1  UNL1        0.0004
     31 C         143.0355  139.9033  170.0926 C.3     1  UNL1        0.4186
     32 F         143.5720  139.4204  171.4074 F       1  UNL1       -0.1659
     33 F         142.2902  138.6126  169.9227 F       1  UNL1       -0.1659
     34 F         143.7807  141.1939  170.2624 F       1  UNL1       -0.1659
@<TRIPOS>BOND
     1    22    23    1
     2    17    23    1
     3    17    18    1
     4    18    19    1
     5    19    20    1
     6    20    11    1
     7    11    12   ar
     8    12    13   ar
     9    13    14   ar
    10    14     1    1
    11     1     2   ar
    12     2     3   ar
    13     3     4   ar
    14     4     5   ar
    15     5     6   ar
    16     6    25    1
    17    25    26   ar
    18    26    27   ar
    19    27    28   ar
    20    28    31    1
    21    31    32    1
    22    31    33    1
    23    31    34    1
    24    28    29   ar
    25    29    30   ar
    26     6     7   ar
    27     7     8   ar
    28     8     9   ar
    29     9    10    2
    30    14    15   ar
    31    15    16   ar
    32    20    21    1
    33    21    17    1
    34    16    11   ar
    35     9     1   ar
    36     8     4   ar
    37    30    25   ar
    38    23    24    1
@<TRIPOS>MOLECULE
*****
 34 38 0 0 0
SMALL
GASTEIGER

@<TRIPOS>ATOM
      1 N         140.7850  143.0153  159.4164 N.ar    1  UNL1       -0.1925
      2 N         141.1597  141.5848  159.1652 N.ar    1  UNL1       -0.1609
      3 C         141.2229  140.6143  160.3073 C.ar    1  UNL1        0.1212
      4 C         140.9113  141.0745  161.7005 C.ar    1  UNL1        0.0321
      5 C         140.8906  140.3522  163.0150 C.ar    1  UNL1        0.0087
      6 C         140.5031  141.3363  164.0786 C.ar    1  UNL1        0.0297
      7 S         140.2843  142.6669  163.4215 S.2     1  UNL1       -0.0821
      8 C         140.5365  142.5050  161.9517 C.ar    1  UNL1        0.0889
      9 C         140.4734  143.4754  160.8097 C.ar    1  UNL1        0.2864
     10 O         140.0986  144.9060  161.0608 O.2     1  UNL1       -0.2646
     11 C         140.5955  145.9266  155.9903 C.ar    1  UNL1        0.1318
     12 C         141.7978  145.9007  156.8868 C.ar    1  UNL1        0.0359
     13 C         141.8609  144.9302  158.0289 C.ar    1  UNL1        0.0237
     14 C         140.7219  143.9858  158.2744 C.ar    1  UNL1        0.1052
     15 C         139.5195  144.0117  157.3779 C.ar    1  UNL1        0.1195
     16 N         139.4563  144.9821  156.2358 N.ar    1  UNL1       -0.2276
     17 C         140.0379  148.8642  153.5154 C.3     1  UNL1        0.0758
     18 C         140.8321  147.9166  152.6663 C.3     1  UNL1        0.0389
     19 C         141.1377  146.7008  153.4900 C.3     1  UNL1        0.0936
     20 N         140.5323  146.8971  154.8483 N.pl3   1  UNL1       -0.2918
     21 C         139.8525  148.2341  154.8640 C.3     1  UNL1        0.1078
     22 C         139.1787  151.2397  154.1230 C.3     1  UNL1        0.0859
     23 N         139.5199  150.2063  153.0906 N.3     1  UNL1       -0.2960
     24 H         140.2303  150.6180  152.4855 H       1  UNL1        0.1233
     25 C         140.3597  141.0417  165.5424 C.ar    1  UNL1        0.0060
     26 C         141.1802  141.7992  166.5438 C.ar    1  UNL1        0.0004
     27 C         141.0367  141.5045  168.0076 C.ar    1  UNL1        0.0039
     28 C         140.0726  140.4525  168.4699 C.ar    1  UNL1        0.0714
     29 C         139.2521  139.6950  167.4685 C.ar    1  UNL1        0.0039
     30 C         139.3956  139.9897  166.0047 C.ar    1  UNL1        0.0004
     31 C         139.9292  140.1579  169.9337 C.3     1  UNL1        0.4186
     32 F         139.7857  139.8633  171.3974 F       1  UNL1       -0.1659
     33 F         141.1568  139.2976  169.8809 F       1  UNL1       -0.1659
     34 F         138.7015  141.0182  169.9865 F       1  UNL1       -0.1659
@<TRIPOS>BOND
     1    22    23    1
     2    17    23    1
     3    17    18    1
     4    18    19    1
     5    19    20    1
     6    20    11    1
     7    11    12   ar
     8    12    13   ar
     9    13    14   ar
    10    14     1    1
    11     1     2   ar
    12     2     3   ar
    13     3     4   ar
    14     4     5   ar
    15     5     6   ar
    16     6    25    1
    17    25    26   ar
    18    26    27   ar
    19    27    28   ar
    20    28    31    1
    21    31    32    1
    22    31    33    1
    23    31    34    1
    24    28    29   ar
    25    29    30   ar
    26     6     7   ar
    27     7     8   ar
    28     8     9   ar
    29     9    10    2
    30    14    15   ar
    31    15    16   ar
    32    20    21    1
    33    21    17    1
    34    16    11   ar
    35     9     1   ar
    36     8     4   ar
    37    30    25   ar
    38    23    24    1
@<TRIPOS>MOLECULE
*****
 34 38 0 0 0
SMALL
GASTEIGER

@<TRIPOS>ATOM
      1 N         140.0742  141.8787  161.8164 N.ar    1  UNL1       -0.1925
      2 N         139.5764  140.8522  160.8426 N.ar    1  UNL1       -0.1609
      3 C         139.3493  141.2271  159.4080 C.ar    1  UNL1        0.1212
      4 C         139.6200  142.6287  158.9474 C.ar    1  UNL1        0.0321
      5 C         139.4901  143.2870  157.6058 C.ar    1  UNL1        0.0087
      6 C         139.9076  144.7204  157.7505 C.ar    1  UNL1        0.0297
      7 S         140.2956  144.9481  159.1815 S.2     1  UNL1       -0.0821
      8 C         140.1178  143.6553  159.9212 C.ar    1  UNL1        0.0889
      9 C         140.3449  143.2803  161.3557 C.ar    1  UNL1        0.2864
     10 O         140.8427  144.3069  162.3296 O.2     1  UNL1       -0.2646
     11 C         140.7556  140.7538  166.1199 C.ar    1  UNL1        0.1318
     12 C         139.3804  141.1262  165.6508 C.ar    1  UNL1        0.0359
     13 C         139.1533  141.5012  164.2163 C.ar    1  UNL1        0.0237
     14 C         140.3013  141.5037  163.2510 C.ar    1  UNL1        0.1052
     15 C         141.6765  141.1313  163.7200 C.ar    1  UNL1        0.1195
     16 N         141.9037  140.7563  165.1545 N.ar    1  UNL1       -0.2276
     17 C         142.0189  139.5544  169.5885 C.3     1  UNL1        0.0758
     18 C         140.6460  140.0492  169.9353 C.3     1  UNL1        0.0389
     19 C         140.0056  140.5588  168.6781 C.3     1  UNL1        0.0936
     20 N         140.9828  140.3788  167.5544 N.pl3   1  UNL1       -0.2918
     21 C         142.2271  139.7581  168.1171 C.3     1  UNL1        0.1078
     22 C         143.3644  137.5058  170.4504 C.3     1  UNL1        0.0859
     23 N         143.0096  138.9602  170.5452 N.3     1  UNL1       -0.2960
     24 H         143.8780  139.4831  170.4324 H       1  UNL1        0.1233
     25 C         139.9328  145.7462  156.6564 C.ar    1  UNL1        0.0060
     26 C         140.7500  145.5059  155.4217 C.ar    1  UNL1        0.0004
     27 C         140.7752  146.5317  154.3276 C.ar    1  UNL1        0.0039
     28 C         139.9831  147.7978  154.4681 C.ar    1  UNL1        0.0714
     29 C         139.1659  148.0381  155.7027 C.ar    1  UNL1        0.0039
     30 C         139.1408  147.0122  156.7968 C.ar    1  UNL1        0.0004
     31 C         140.0083  148.8235  153.3739 C.3     1  UNL1        0.4186
     32 F         140.0335  149.8492  152.2798 F       1  UNL1       -0.1659
     33 F         140.7383  147.8592  152.4867 F       1  UNL1       -0.1659
     34 F         139.2782  149.7878  154.2612 F       1  UNL1       -0.1659
@<TRIPOS>BOND
     1    22    23    1
     2    17    23    1
     3    17    18    1
     4    18    19    1
     5    19    20    1
     6    20    11    1
     7    11    12   ar
     8    12    13   ar
     9    13    14   ar
    10    14     1    1
    11     1     2   ar
    12     2     3   ar
    13     3     4   ar
    14     4     5   ar
    15     5     6   ar
    16     6    25    1
    17    25    26   ar
    18    26    27   ar
    19    27    28   ar
    20    28    31    1
    21    31    32    1
    22    31    33    1
    23    31    34    1
    24    28    29   ar
    25    29    30   ar
    26     6     7   ar
    27     7     8   ar
    28     8     9   ar
    29     9    10    2
    30    14    15   ar
    31    15    16   ar
    32    20    21    1
    33    21    17    1
    34    16    11   ar
    35     9     1   ar
    36     8     4   ar
    37    30    25   ar
    38    23    24    1
@<TRIPOS>MOLECULE
*****
 34 38 0 0 0
SMALL
GASTEIGER

@<TRIPOS>ATOM
      1 N         143.3917  142.7161  160.0673 N.ar    1  UNL1       -0.1925
      2 N         142.6561  144.0045  160.2875 N.ar    1  UNL1       -0.1609
      3 C         141.9315  144.2432  161.5791 C.ar    1  UNL1        0.1212
      4 C         141.9427  143.1934  162.6504 C.ar    1  UNL1        0.0321
      5 C         141.3236  143.1462  164.0159 C.ar    1  UNL1        0.0087
      6 C         141.6767  141.8285  164.6395 C.ar    1  UNL1        0.0297
      7 S         142.5140  141.0613  163.6595 S.2     1  UNL1       -0.0821
      8 C         142.6784  141.9049  162.4301 C.ar    1  UNL1        0.0889
      9 C         143.4029  141.6663  161.1386 C.ar    1  UNL1        0.2864
     10 O         144.1386  140.3778  160.9183 O.2     1  UNL1       -0.2646
     11 C         145.5655  142.0000  156.1928 C.ar    1  UNL1        0.1318
     12 C         144.0998  141.6989  156.2971 C.ar    1  UNL1        0.0359
     13 C         143.3752  141.9376  157.5887 C.ar    1  UNL1        0.0237
     14 C         144.1163  142.4774  158.7757 C.ar    1  UNL1        0.1052
     15 C         145.5821  142.7785  158.6714 C.ar    1  UNL1        0.1195
     16 N         146.3067  142.5398  157.3799 N.ar    1  UNL1       -0.2276
     17 C         148.0005  141.7650  153.1793 C.3     1  UNL1        0.0758
     18 C         146.8099  141.0231  152.6484 C.3     1  UNL1        0.0389
     19 C         145.7528  141.0208  153.7127 C.3     1  UNL1        0.0936
     20 N         146.2901  141.7614  154.9013 N.pl3   1  UNL1       -0.2918
     21 C         147.6793  142.2213  154.5717 C.3     1  UNL1        0.1078
     22 C         150.0706  143.2609  152.7027 C.3     1  UNL1        0.0859
     23 N         149.2866  142.0080  152.4465 N.3     1  UNL1       -0.2960
     24 H         149.9027  141.2251  152.6655 H       1  UNL1        0.1233
     25 C         141.2649  141.3601  166.0037 C.ar    1  UNL1        0.0060
     26 C         142.1274  141.6632  167.1929 C.ar    1  UNL1        0.0004
     27 C         141.7155  141.1948  168.5570 C.ar    1  UNL1        0.0039
     28 C         140.4410  140.4233  168.7321 C.ar    1  UNL1        0.0714
     29 C         139.5785  140.1202  167.5429 C.ar    1  UNL1        0.0039
     30 C         139.9904  140.5886  166.1788 C.ar    1  UNL1        0.0004
     31 C         140.0292  139.9549  170.0963 C.3     1  UNL1        0.4186
     32 F         139.6173  139.4866  171.4604 F       1  UNL1       -0.1659
     33 F         141.2887  139.1468  170.1991 F       1  UNL1       -0.1659
     34 F         138.7697  140.7631  169.9934 F       1  UNL1       -0.1659
@<TRIPOS>BOND
     1    22    23    1
     2    17    23    1
     3    17    18    1
     4    18    19    1
     5    19    20    1
     6    20    11    1
     7    11    12   ar
     8    12    13   ar
     9    13    14   ar
    10    14     1    1
    11     1     2   ar
    12     2     3   ar
    13     3     4   ar
    14     4     5   ar
    15     5     6   ar
    16     6    25    1
    17    25    26   ar
    18    26    27   ar
    19    27    28   ar
    20    28    31    1
    21    31    32    1
    22    31    33    1
    23    31    34    1
    24    28    29   ar
    25    29    30   ar
    26     6     7   ar
    27     7     8   ar
    28     8     9   ar
    29     9    10    2
    30    14    15   ar
    31    15    16   ar
    32    20    21    1
    33    21    17    1
    34    16    11   ar
    35     9     1   ar
    36     8     4   ar
    37    30    25   ar
    38    23    24    1
@<TRIPOS>MOLECULE
*****
 34 38 0 0 0
SMALL
GASTEIGER

@<TRIPOS>ATOM
      1 N         140.2423  143.4055  159.7554 N.ar    1  UNL1       -0.1925
      2 N         138.7564  143.2144  159.8282 N.ar    1  UNL1       -0.1609
      3 C         138.1145  142.8116  161.1227 C.ar    1  UNL1        0.1212
      4 C         138.9586  142.6000  162.3444 C.ar    1  UNL1        0.0321
      5 C         138.6105  142.2035  163.7486 C.ar    1  UNL1        0.0087
      6 C         139.8813  142.1497  164.5435 C.ar    1  UNL1        0.0297
      7 S         141.0149  142.5128  163.6307 S.2     1  UNL1       -0.0821
      8 C         140.4446  142.7911  162.2716 C.ar    1  UNL1        0.0889
      9 C         141.0865  143.1939  160.9771 C.ar    1  UNL1        0.2864
     10 O         142.5724  143.3850  160.9042 O.2     1  UNL1       -0.2646
     11 C         142.1680  144.6140  155.8718 C.ar    1  UNL1        0.1318
     12 C         141.8227  143.1759  156.1221 C.ar    1  UNL1        0.0359
     13 C         141.1808  142.7731  157.4167 C.ar    1  UNL1        0.0237
     14 C         140.8842  143.8083  158.4608 C.ar    1  UNL1        0.1052
     15 C         141.2295  145.2464  158.2105 C.ar    1  UNL1        0.1195
     16 N         141.8714  145.6492  156.9160 N.ar    1  UNL1       -0.2276
     17 C         144.4285  145.2858  152.7890 C.3     1  UNL1        0.0758
     18 C         143.1669  145.9876  152.3818 C.3     1  UNL1        0.0389
     19 C         142.1665  145.8214  153.4871 C.3     1  UNL1        0.0936
     20 N         142.8099  145.0168  154.5774 N.pl3   1  UNL1       -0.2918
     21 C         144.2078  144.6858  154.1459 C.3     1  UNL1        0.1078
     22 C         147.0185  145.1191  152.6715 C.3     1  UNL1        0.0859
     23 N         145.6893  145.1992  151.9810 N.3     1  UNL1       -0.2960
     24 H         145.6092  144.3655  151.3988 H       1  UNL1        0.1233
     25 C         139.9982  141.7949  165.9963 C.ar    1  UNL1        0.0060
     26 C         139.5978  140.4289  166.4693 C.ar    1  UNL1        0.0004
     27 C         139.7147  140.0743  167.9222 C.ar    1  UNL1        0.0039
     28 C         140.2318  141.0855  168.9019 C.ar    1  UNL1        0.0714
     29 C         140.6322  142.4515  168.4289 C.ar    1  UNL1        0.0039
     30 C         140.5153  142.8062  166.9760 C.ar    1  UNL1        0.0004
     31 C         140.3487  140.7308  170.3547 C.3     1  UNL1        0.4186
     32 F         140.4655  140.3761  171.8073 F       1  UNL1       -0.1659
     33 F         141.0015  139.4319  169.9850 F       1  UNL1       -0.1659
     34 F         139.6959  142.0298  170.7242 F       1  UNL1       -0.1659
@<TRIPOS>BOND
     1    22    23    1
     2    17    23    1
     3    17    18    1
     4    18    19    1
     5    19    20    1
     6    20    11    1
     7    11    12   ar
     8    12    13   ar
     9    13    14   ar
    10    14     1    1
    11     1     2   ar
    12     2     3   ar
    13     3     4   ar
    14     4     5   ar
    15     5     6   ar
    16     6    25    1
    17    25    26   ar
    18    26    27   ar
    19    27    28   ar
    20    28    31    1
    21    31    32    1
    22    31    33    1
    23    31    34    1
    24    28    29   ar
    25    29    30   ar
    26     6     7   ar
    27     7     8   ar
    28     8     9   ar
    29     9    10    2
    30    14    15   ar
    31    15    16   ar
    32    20    21    1
    33    21    17    1
    34    16    11   ar
    35     9     1   ar
    36     8     4   ar
    37    30    25   ar
    38    23    24    1
@<TRIPOS>MOLECULE
*****
 34 38 0 0 0
SMALL
GASTEIGER

@<TRIPOS>ATOM
      1 N         143.2791  141.0233  159.6928 N.ar    1  UNL1       -0.1925
      2 N         141.8688  140.6498  159.3444 N.ar    1  UNL1       -0.1609
      3 C         140.8827  140.3454  160.4330 C.ar    1  UNL1        0.1212
      4 C         141.3071  140.4145  161.8701 C.ar    1  UNL1        0.0321
      5 C         140.5628  140.1698  163.1492 C.ar    1  UNL1        0.0087
      6 C         141.5132  140.3921  164.2882 C.ar    1  UNL1        0.0297
      7 S         142.8449  140.7741  163.7130 S.2     1  UNL1       -0.0821
      8 C         142.7174  140.7879  162.2185 C.ar    1  UNL1        0.0889
      9 C         143.7034  141.0923  161.1298 C.ar    1  UNL1        0.2864
     10 O         145.1138  141.4658  161.4783 O.2     1  UNL1       -0.2646
     11 C         146.2373  141.9366  156.4271 C.ar    1  UNL1        0.1318
     12 C         145.3902  140.7013  156.3476 C.ar    1  UNL1        0.0359
     13 C         144.4041  140.3969  157.4362 C.ar    1  UNL1        0.0237
     14 C         144.2652  141.3277  158.6042 C.ar    1  UNL1        0.1052
     15 C         145.1123  142.5630  158.6836 C.ar    1  UNL1        0.1195
     16 N         146.0984  142.8675  157.5951 N.ar    1  UNL1       -0.2276
     17 C         149.2559  142.2915  154.0131 C.3     1  UNL1        0.0758
     18 C         148.2256  143.1277  153.3137 C.3     1  UNL1        0.0389
     19 C         146.9694  143.0965  154.1328 C.3     1  UNL1        0.0936
     20 N         147.2234  142.2411  155.3385 N.pl3   1  UNL1       -0.2918
     21 C         148.6365  141.7436  155.2645 C.3     1  UNL1        0.1078
     22 C         151.8191  142.4290  154.4144 C.3     1  UNL1        0.0859
     23 N         150.6593  142.0464  153.5436 N.3     1  UNL1       -0.2960
     24 H         150.7404  141.0449  153.3683 H       1  UNL1        0.1233
     25 C         141.1890  140.2562  165.7464 C.ar    1  UNL1        0.0060
     26 C         142.2918  140.0681  166.7456 C.ar    1  UNL1        0.0004
     27 C         141.9674  139.9322  168.2038 C.ar    1  UNL1        0.0039
     28 C         140.5404  139.9844  168.6629 C.ar    1  UNL1        0.0714
     29 C         139.4375  140.1725  167.6637 C.ar    1  UNL1        0.0039
     30 C         139.7619  140.3084  166.2054 C.ar    1  UNL1        0.0004
     31 C         140.2161  139.8485  170.1211 C.3     1  UNL1        0.4186
     32 F         139.8918  139.7127  171.5792 F       1  UNL1       -0.1659
     33 F         141.4571  139.0300  170.3208 F       1  UNL1       -0.1659
     34 F         138.9751  140.6671  169.9213 F       1  UNL1       -0.1659
@<TRIPOS>BOND
     1    22    23    1
     2    17    23    1
     3    17    18    1
     4    18    19    1
     5    19    20    1
     6    20    11    1
     7    11    12   ar
     8    12    13   ar
     9    13    14   ar
    10    14     1    1
    11     1     2   ar
    12     2     3   ar
    13     3     4   ar
    14     4     5   ar
    15     5     6   ar
    16     6    25    1
    17    25    26   ar
    18    26    27   ar
    19    27    28   ar
    20    28    31    1
    21    31    32    1
    22    31    33    1
    23    31    34    1
    24    28    29   ar
    25    29    30   ar
    26     6     7   ar
    27     7     8   ar
    28     8     9   ar
    29     9    10    2
    30    14    15   ar
    31    15    16   ar
    32    20    21    1
    33    21    17    1
    34    16    11   ar
    35     9     1   ar
    36     8     4   ar
    37    30    25   ar
    38    23    24    1
@<TRIPOS>MOLECULE
*****
 34 38 0 0 0
SMALL
GASTEIGER

@<TRIPOS>ATOM
      1 N         139.9247  141.6487  159.8369 N.ar    1  UNL1       -0.1925
      2 N         141.4056  141.7621  159.6276 N.ar    1  UNL1       -0.1609
      3 C         142.3221  141.8932  160.8078 C.ar    1  UNL1        0.1212
      4 C         141.7575  141.9109  162.1974 C.ar    1  UNL1        0.0321
      5 C         142.4085  142.0276  163.5437 C.ar    1  UNL1        0.0087
      6 C         141.3297  141.9863  164.5852 C.ar    1  UNL1        0.0297
      7 S         140.0121  141.8441  163.8825 S.2     1  UNL1       -0.0821
      8 C         140.2766  141.7974  162.4067 C.ar    1  UNL1        0.0889
      9 C         139.3601  141.6663  161.2265 C.ar    1  UNL1        0.2864
     10 O         137.8791  141.5529  161.4359 O.2     1  UNL1       -0.2646
     11 C         137.1752  141.2552  156.2963 C.ar    1  UNL1        0.1318
     12 C         137.4166  142.6014  156.9124 C.ar    1  UNL1        0.0359
     13 C         138.3332  142.7325  158.0927 C.ar    1  UNL1        0.0237
     14 C         139.0081  141.5176  158.6567 C.ar    1  UNL1        0.1052
     15 C         138.7667  140.1714  158.0406 C.ar    1  UNL1        0.1195
     16 N         137.8502  140.0403  156.8604 N.ar    1  UNL1       -0.2276
     17 C         134.3225  141.3130  153.6650 C.3     1  UNL1        0.0758
     18 C         135.3743  140.5314  152.9350 C.3     1  UNL1        0.0389
     19 C         136.5710  140.4147  153.8319 C.3     1  UNL1        0.0936
     20 N         136.2587  141.1241  155.1161 N.pl3   1  UNL1       -0.2918
     21 C         134.8691  141.6793  155.0130 C.3     1  UNL1        0.1078
     22 C         131.7990  141.7713  154.0797 C.3     1  UNL1        0.0859
     23 N         132.9628  141.6662  153.1392 N.3     1  UNL1       -0.2960
     24 H         133.0515  142.5718  152.6782 H       1  UNL1        0.1233
     25 C         141.5329  142.0722  166.0689 C.ar    1  UNL1        0.0060
     26 C         140.3483  142.0765  166.9891 C.ar    1  UNL1        0.0004
     27 C         140.5516  142.1624  168.4728 C.ar    1  UNL1        0.0039
     28 C         141.9393  142.2440  169.0363 C.ar    1  UNL1        0.0714
     29 C         143.1239  142.2398  168.1161 C.ar    1  UNL1        0.0039
     30 C         142.9206  142.1539  166.6324 C.ar    1  UNL1        0.0004
     31 C         142.1425  142.3299  170.5200 C.3     1  UNL1        0.4186
     32 F         142.3456  142.4159  172.0036 F       1  UNL1       -0.1659
     33 F         141.8157  140.8716  170.6492 F       1  UNL1       -0.1659
     34 F         142.4692  143.7882  170.3907 F       1  UNL1       -0.1659
@<TRIPOS>BOND
     1    22    23    1
     2    17    23    1
     3    17    18    1
     4    18    19    1
     5    19    20    1
     6    20    11    1
     7    11    12   ar
     8    12    13   ar
     9    13    14   ar
    10    14     1    1
    11     1     2   ar
    12     2     3   ar
    13     3     4   ar
    14     4     5   ar
    15     5     6   ar
    16     6    25    1
    17    25    26   ar
    18    26    27   ar
    19    27    28   ar
    20    28    31    1
    21    31    32    1
    22    31    33    1
    23    31    34    1
    24    28    29   ar
    25    29    30   ar
    26     6     7   ar
    27     7     8   ar
    28     8     9   ar
    29     9    10    2
    30    14    15   ar
    31    15    16   ar
    32    20    21    1
    33    21    17    1
    34    16    11   ar
    35     9     1   ar
    36     8     4   ar
    37    30    25   ar
    38    23    24    1
