@<TRIPOS>MOLECULE
*****
 33 37 0 0 0
SMALL
GASTEIGER

@<TRIPOS>ATOM
      1 N         141.5937  139.9679  161.9143 N.pl3   1  UNL1       -0.3328
      2 H         141.1954  139.7935  161.0310 H       1  UNL1        0.1468
      3 C         140.8175  140.7249  162.9508 C.ar    1  UNL1        0.0431
      4 C         140.8774  142.2233  162.9866 C.ar    1  UNL1        0.0045
      5 C         140.1011  142.9803  164.0232 C.ar    1  UNL1        0.0561
      6 N         139.2650  142.2389  165.0238 N.ar    1  UNL1       -0.2499
      7 C         139.2051  140.7406  164.9879 C.ar    1  UNL1        0.0829
      8 C         138.3689  139.9992  165.9886 C.ar    1  UNL1        0.0305
      9 C         138.3091  138.5008  165.9527 C.ar    1  UNL1        0.0592
     10 CL        137.4730  137.7595  166.9533 Cl      1  UNL1       -0.0822
     11 C         139.0853  137.7438  164.9162 C.ar    1  UNL1        0.0115
     12 C         139.9215  138.4852  163.9155 C.ar    1  UNL1        0.0036
     13 C         139.9814  139.9836  163.9514 C.ar    1  UNL1        0.0305
     14 C         140.1610  144.4787  164.0591 C.3     1  UNL1        0.0455
     15 C         140.9971  145.2200  163.0584 C.3     1  UNL1        0.0066
     16 C         141.7734  144.4630  162.0219 C.3     1  UNL1        0.0052
     17 C         141.7135  142.9647  161.9860 C.3     1  UNL1        0.0288
     18 C         142.9769  139.4766  162.2236 C.3     1  UNL1        0.0884
     19 C         144.1329  140.4322  162.2092 C.3     1  UNL1        0.0382
     20 C         144.8827  140.7216  163.4757 C.3     1  UNL1        0.0703
     21 N         144.3043  141.6614  164.4916 N.3     1  UNL1       -0.2982
     22 H         145.0918  142.1052  164.9642 H       1  UNL1        0.1232
     23 O         138.9998  140.0086  170.7271 O.2     1  UNL1       -0.2726
     24 C         139.9098  140.5305  169.6550 C.2     1  UNL1        0.2497
     25 C         140.0655  142.0093  169.4577 C.3     1  UNL1        0.1129
     26 C         140.9755  142.5313  168.3856 C.2     1  UNL1       -0.0198
     27 C         141.7299  141.5744  167.5107 C.2     1  UNL1       -0.0134
     28 C         141.5743  140.0956  167.7080 C.2     1  UNL1        0.0468
     29 N         140.6642  139.5736  168.7802 N.am    1  UNL1       -0.1836
     30 C         142.3286  139.1388  166.8332 C.3     1  UNL1        0.0443
     31 C         143.2386  139.6607  165.7611 C.3     1  UNL1        0.0221
     32 C         143.3943  141.1395  165.5637 C.3     1  UNL1        0.0588
     33 C         142.6399  142.0964  166.4386 C.3     1  UNL1        0.0427
@<TRIPOS>BOND
     1    23    24    2
     2    24    25    1
     3    25    26    1
     4    26    27    2
     5    27    28    1
     6    28    29    2
     7    28    30    1
     8    30    31    1
     9    31    32    1
    10    32    21    1
    11    21    20    1
    12    20    19    1
    13    19    18    1
    14    18     1    1
    15     1     3    1
    16     3     4   ar
    17     4     5   ar
    18     5     6   ar
    19     6     7   ar
    20     7     8   ar
    21     8     9   ar
    22     9    10    1
    23     9    11   ar
    24    11    12   ar
    25    12    13   ar
    26     5    14    1
    27    14    15    1
    28    15    16    1
    29    16    17    1
    30    32    33    1
    31    29    24    1
    32    13     3   ar
    33    33    27    1
    34    17     4    1
    35    13     7   ar
    36    21    22    1
    37     1     2    1
@<TRIPOS>MOLECULE
*****
 33 37 0 0 0
SMALL
GASTEIGER

@<TRIPOS>ATOM
      1 N         139.8560  138.8806  165.0875 N.pl3   1  UNL1       -0.3328
      2 H         139.2645  138.2549  165.5648 H       1  UNL1        0.1468
      3 C         139.9625  140.3064  165.5413 C.ar    1  UNL1        0.0431
      4 C         139.1292  141.3667  164.8844 C.ar    1  UNL1        0.0045
      5 C         139.2357  142.7925  165.3383 C.ar    1  UNL1        0.0561
      6 N         140.1753  143.1578  166.4490 N.ar    1  UNL1       -0.2499
      7 C         141.0085  142.0975  167.1058 C.ar    1  UNL1        0.0829
      8 C         141.9481  142.4628  168.2166 C.ar    1  UNL1        0.0305
      9 C         142.7813  141.4025  168.8734 C.ar    1  UNL1        0.0592
     10 CL        143.7209  141.7678  169.9841 Cl      1  UNL1       -0.0822
     11 C         142.6749  139.9767  168.4196 C.ar    1  UNL1        0.0115
     12 C         141.7353  139.6114  167.3089 C.ar    1  UNL1        0.0036
     13 C         140.9021  140.6717  166.6520 C.ar    1  UNL1        0.0305
     14 C         138.4025  143.8528  164.6815 C.3     1  UNL1        0.0455
     15 C         137.4629  143.4874  163.5708 C.3     1  UNL1        0.0066
     16 C         137.3565  142.0617  163.1169 C.3     1  UNL1        0.0052
     17 C         138.1897  141.0014  163.7738 C.3     1  UNL1        0.0288
     18 C         140.6509  138.4082  163.9063 C.3     1  UNL1        0.0884
     19 C         142.0678  137.9516  164.0900 C.3     1  UNL1        0.0382
     20 C         143.1843  138.6729  163.3949 C.3     1  UNL1        0.0703
     21 N         143.7973  139.8893  164.0231 N.3     1  UNL1       -0.2982
     22 H         143.7865  139.7370  165.0316 H       1  UNL1        0.1232
     23 O         139.7641  146.8366  161.7387 O.2     1  UNL1       -0.2726
     24 C         140.3667  145.4841  161.9788 C.2     1  UNL1        0.2497
     25 C         139.9491  144.3164  161.1348 C.3     1  UNL1        0.1129
     26 C         140.5517  142.9640  161.3749 C.2     1  UNL1       -0.0198
     27 C         141.5719  142.7791  162.4589 C.2     1  UNL1       -0.0134
     28 C         141.9895  143.9467  163.3029 C.2     1  UNL1        0.0468
     29 N         141.3868  145.2993  163.0628 N.am    1  UNL1       -0.1836
     30 C         143.0096  143.7619  164.3869 C.3     1  UNL1        0.0443
     31 C         143.6122  142.4094  164.6270 C.3     1  UNL1        0.0221
     32 C         143.1947  141.2417  163.7830 C.3     1  UNL1        0.0588
     33 C         142.1745  141.4266  162.6990 C.3     1  UNL1        0.0427
@<TRIPOS>BOND
     1    23    24    2
     2    24    25    1
     3    25    26    1
     4    26    27    2
     5    27    28    1
     6    28    29    2
     7    28    30    1
     8    30    31    1
     9    31    32    1
    10    32    21    1
    11    21    20    1
    12    20    19    1
    13    19    18    1
    14    18     1    1
    15     1     3    1
    16     3     4   ar
    17     4     5   ar
    18     5     6   ar
    19     6     7   ar
    20     7     8   ar
    21     8     9   ar
    22     9    10    1
    23     9    11   ar
    24    11    12   ar
    25    12    13   ar
    26     5    14    1
    27    14    15    1
    28    15    16    1
    29    16    17    1
    30    32    33    1
    31    29    24    1
    32    13     3   ar
    33    33    27    1
    34    17     4    1
    35    13     7   ar
    36    21    22    1
    37     1     2    1
@<TRIPOS>MOLECULE
*****
 33 37 0 0 0
SMALL
GASTEIGER

@<TRIPOS>ATOM
      1 N         141.3096  139.7835  161.7676 N.pl3   1  UNL1       -0.3328
      2 H         141.0291  140.0076  160.8509 H       1  UNL1        0.1468
      3 C         140.7469  140.5445  162.9313 C.ar    1  UNL1        0.0431
      4 C         141.0134  142.0146  163.0656 C.ar    1  UNL1        0.0045
      5 C         140.4508  142.7756  164.2293 C.ar    1  UNL1        0.0561
      6 N         139.6215  142.0666  165.2587 N.ar    1  UNL1       -0.2499
      7 C         139.3550  140.5966  165.1245 C.ar    1  UNL1        0.0829
      8 C         138.5258  139.8876  166.1540 C.ar    1  UNL1        0.0305
      9 C         138.2593  138.4176  166.0197 C.ar    1  UNL1        0.0592
     10 CL        137.4302  137.7086  167.0492 Cl      1  UNL1       -0.0822
     11 C         138.8220  137.6565  164.8560 C.ar    1  UNL1        0.0115
     12 C         139.6512  138.3655  163.8266 C.ar    1  UNL1        0.0036
     13 C         139.9177  139.8356  163.9608 C.ar    1  UNL1        0.0305
     14 C         140.7172  144.2456  164.3635 C.3     1  UNL1        0.0455
     15 C         141.5464  144.9545  163.3341 C.3     1  UNL1        0.0066
     16 C         142.1091  144.1935  162.1704 C.3     1  UNL1        0.0052
     17 C         141.8426  142.7235  162.0361 C.3     1  UNL1        0.0288
     18 C         142.2995  138.6808  162.0007 C.3     1  UNL1        0.0884
     19 C         143.7356  138.8673  161.6096 C.3     1  UNL1        0.0382
     20 C         144.3963  140.2011  161.7949 C.3     1  UNL1        0.0703
     21 N         145.1550  140.4936  163.0554 N.3     1  UNL1       -0.2982
     22 H         145.6366  139.6330  163.3156 H       1  UNL1        0.1232
     23 O         140.7234  141.8923  169.9947 O.2     1  UNL1       -0.2726
     24 C         141.4531  141.4180  168.7731 C.2     1  UNL1        0.2497
     25 C         141.3996  139.9708  168.3821 C.3     1  UNL1        0.1129
     26 C         142.1293  139.4965  167.1604 C.2     1  UNL1       -0.0198
     27 C         142.9125  140.4694  166.3296 C.2     1  UNL1       -0.0134
     28 C         142.9660  141.9165  166.7205 C.2     1  UNL1        0.0468
     29 N         142.2362  142.3909  167.9423 N.am    1  UNL1       -0.1836
     30 C         143.7491  142.8894  165.8898 C.3     1  UNL1        0.0443
     31 C         144.4788  142.4151  164.6681 C.3     1  UNL1        0.0221
     32 C         144.4253  140.9679  164.2771 C.3     1  UNL1        0.0588
     33 C         143.6422  139.9950  165.1078 C.3     1  UNL1        0.0427
@<TRIPOS>BOND
     1    23    24    2
     2    24    25    1
     3    25    26    1
     4    26    27    2
     5    27    28    1
     6    28    29    2
     7    28    30    1
     8    30    31    1
     9    31    32    1
    10    32    21    1
    11    21    20    1
    12    20    19    1
    13    19    18    1
    14    18     1    1
    15     1     3    1
    16     3     4   ar
    17     4     5   ar
    18     5     6   ar
    19     6     7   ar
    20     7     8   ar
    21     8     9   ar
    22     9    10    1
    23     9    11   ar
    24    11    12   ar
    25    12    13   ar
    26     5    14    1
    27    14    15    1
    28    15    16    1
    29    16    17    1
    30    32    33    1
    31    29    24    1
    32    13     3   ar
    33    33    27    1
    34    17     4    1
    35    13     7   ar
    36    21    22    1
    37     1     2    1
@<TRIPOS>MOLECULE
*****
 33 37 0 0 0
SMALL
GASTEIGER

@<TRIPOS>ATOM
      1 N         137.2962  139.7070  161.4057 N.pl3   1  UNL1       -0.3328
      2 H         136.3173  139.6023  161.3945 H       1  UNL1        0.1468
      3 C         137.9102  141.0471  161.1279 C.ar    1  UNL1        0.0431
      4 C         138.3931  141.3791  159.7471 C.ar    1  UNL1        0.0045
      5 C         139.0072  142.7192  159.4693 C.ar    1  UNL1        0.0561
      6 N         139.1383  143.7272  160.5724 N.ar    1  UNL1       -0.2499
      7 C         138.6554  143.3952  161.9531 C.ar    1  UNL1        0.0829
      8 C         138.7866  144.4033  163.0562 C.ar    1  UNL1        0.0305
      9 C         138.3037  144.0712  164.4370 C.ar    1  UNL1        0.0592
     10 CL        138.4349  145.0793  165.5399 Cl      1  UNL1       -0.0822
     11 C         137.6896  142.7312  164.7147 C.ar    1  UNL1        0.0115
     12 C         137.5585  141.7231  163.6117 C.ar    1  UNL1        0.0036
     13 C         138.0414  142.0551  162.2309 C.ar    1  UNL1        0.0305
     14 C         139.4901  143.0512  158.0886 C.3     1  UNL1        0.0455
     15 C         139.3589  142.0432  156.9856 C.3     1  UNL1        0.0066
     16 C         138.7449  140.7031  157.2633 C.3     1  UNL1        0.0052
     17 C         138.2620  140.3711  158.6441 C.3     1  UNL1        0.0288
     18 C         138.1735  138.5266  161.7005 C.3     1  UNL1        0.0884
     19 C         138.6424  138.2722  163.1024 C.3     1  UNL1        0.0382
     20 C         140.0925  138.4357  163.4495 C.3     1  UNL1        0.0703
     21 N         140.6865  139.8084  163.5624 N.3     1  UNL1       -0.2982
     22 H         141.6697  139.7261  163.3034 H       1  UNL1        0.1232
     23 O         139.8233  142.8238  171.3027 O.2     1  UNL1       -0.2726
     24 C         139.8665  142.0933  169.9934 C.2     1  UNL1        0.2497
     25 C         139.2619  140.7254  169.8774 C.3     1  UNL1        0.1129
     26 C         139.3050  139.9949  168.5681 C.2     1  UNL1       -0.0198
     27 C         139.9527  140.6322  167.3746 C.2     1  UNL1       -0.0134
     28 C         140.5572  142.0000  167.4905 C.2     1  UNL1        0.0468
     29 N         140.5141  142.7306  168.7999 N.am    1  UNL1       -0.1836
     30 C         141.2048  142.6374  166.2971 C.3     1  UNL1        0.0443
     31 C         141.2480  141.9069  164.9877 C.3     1  UNL1        0.0221
     32 C         140.6434  140.5389  164.8718 C.3     1  UNL1        0.0588
     33 C         139.9958  139.9016  166.0652 C.3     1  UNL1        0.0427
@<TRIPOS>BOND
     1    23    24    2
     2    24    25    1
     3    25    26    1
     4    26    27    2
     5    27    28    1
     6    28    29    2
     7    28    30    1
     8    30    31    1
     9    31    32    1
    10    32    21    1
    11    21    20    1
    12    20    19    1
    13    19    18    1
    14    18     1    1
    15     1     3    1
    16     3     4   ar
    17     4     5   ar
    18     5     6   ar
    19     6     7   ar
    20     7     8   ar
    21     8     9   ar
    22     9    10    1
    23     9    11   ar
    24    11    12   ar
    25    12    13   ar
    26     5    14    1
    27    14    15    1
    28    15    16    1
    29    16    17    1
    30    32    33    1
    31    29    24    1
    32    13     3   ar
    33    33    27    1
    34    17     4    1
    35    13     7   ar
    36    21    22    1
    37     1     2    1
@<TRIPOS>MOLECULE
*****
 33 37 0 0 0
SMALL
GASTEIGER

@<TRIPOS>ATOM
      1 N         142.8929  138.2779  163.3793 N.pl3   1  UNL1       -0.3328
      2 H         143.2606  137.4263  163.7093 H       1  UNL1        0.1468
      3 C         142.2488  139.2374  164.3356 C.ar    1  UNL1        0.0431
      4 C         140.9063  138.9210  164.9253 C.ar    1  UNL1        0.0045
      5 C         140.2622  139.8805  165.8815 C.ar    1  UNL1        0.0561
      6 N         140.9606  141.1565  166.2480 N.ar    1  UNL1       -0.2499
      7 C         142.3030  141.4728  165.6583 C.ar    1  UNL1        0.0829
      8 C         143.0014  142.7488  166.0249 C.ar    1  UNL1        0.0305
      9 C         144.3438  143.0652  165.4352 C.ar    1  UNL1        0.0592
     10 CL        145.0421  144.3411  165.8017 Cl      1  UNL1       -0.0822
     11 C         144.9879  142.1056  164.4789 C.ar    1  UNL1        0.0115
     12 C         144.2896  140.8297  164.1124 C.ar    1  UNL1        0.0036
     13 C         142.9471  140.5133  164.7021 C.ar    1  UNL1        0.0305
     14 C         138.9198  139.5642  166.4712 C.3     1  UNL1        0.0455
     15 C         138.2215  138.2883  166.1047 C.3     1  UNL1        0.0066
     16 C         138.8656  137.3287  165.1484 C.3     1  UNL1        0.0052
     17 C         140.2080  137.6451  164.5587 C.3     1  UNL1        0.0288
     18 C         142.9769  138.6158  161.9203 C.3     1  UNL1        0.0884
     19 C         142.0333  137.9745  160.9464 C.3     1  UNL1        0.0382
     20 C         140.9998  138.8054  160.2454 C.3     1  UNL1        0.0703
     21 N         139.5946  138.8525  160.7680 N.3     1  UNL1       -0.2982
     22 H         138.9817  138.9388  159.9573 H       1  UNL1        0.1232
     23 O         138.4732  145.3921  165.8401 O.2     1  UNL1       -0.2726
     24 C         138.8786  144.3183  164.8745 C.2     1  UNL1        0.2497
     25 C         140.1901  144.4148  164.1527 C.3     1  UNL1        0.1129
     26 C         140.5955  143.3410  163.1871 C.2     1  UNL1       -0.0198
     27 C         139.6896  142.1706  162.9432 C.2     1  UNL1       -0.0134
     28 C         138.3782  142.0741  163.6649 C.2     1  UNL1        0.0468
     29 N         137.9727  143.1479  164.6306 N.am    1  UNL1       -0.1836
     30 C         137.4723  140.9037  163.4210 C.3     1  UNL1        0.0443
     31 C         137.8777  139.8298  162.4554 C.3     1  UNL1        0.0221
     32 C         139.1892  139.9264  161.7336 C.3     1  UNL1        0.0588
     33 C         140.0951  141.0967  161.9775 C.3     1  UNL1        0.0427
@<TRIPOS>BOND
     1    23    24    2
     2    24    25    1
     3    25    26    1
     4    26    27    2
     5    27    28    1
     6    28    29    2
     7    28    30    1
     8    30    31    1
     9    31    32    1
    10    32    21    1
    11    21    20    1
    12    20    19    1
    13    19    18    1
    14    18     1    1
    15     1     3    1
    16     3     4   ar
    17     4     5   ar
    18     5     6   ar
    19     6     7   ar
    20     7     8   ar
    21     8     9   ar
    22     9    10    1
    23     9    11   ar
    24    11    12   ar
    25    12    13   ar
    26     5    14    1
    27    14    15    1
    28    15    16    1
    29    16    17    1
    30    32    33    1
    31    29    24    1
    32    13     3   ar
    33    33    27    1
    34    17     4    1
    35    13     7   ar
    36    21    22    1
    37     1     2    1
@<TRIPOS>MOLECULE
*****
 33 37 0 0 0
SMALL
GASTEIGER

@<TRIPOS>ATOM
      1 N         142.9415  138.4914  163.2516 N.pl3   1  UNL1       -0.3328
      2 H         143.5304  137.7633  163.5555 H       1  UNL1        0.1468
      3 C         142.3960  139.4775  164.2417 C.ar    1  UNL1        0.0431
      4 C         143.1428  140.7473  164.5247 C.ar    1  UNL1        0.0045
      5 C         142.5973  141.7333  165.5148 C.ar    1  UNL1        0.0561
      6 N         141.3051  141.4496  166.2218 N.ar    1  UNL1       -0.2499
      7 C         140.5584  140.1798  165.9387 C.ar    1  UNL1        0.0829
      8 C         139.2662  139.8961  166.6457 C.ar    1  UNL1        0.0305
      9 C         138.5195  138.6264  166.3626 C.ar    1  UNL1        0.0592
     10 CL        137.2274  138.3427  167.0695 Cl      1  UNL1       -0.0822
     11 C         139.0650  137.6403  165.3725 C.ar    1  UNL1        0.0115
     12 C         140.3571  137.9240  164.6656 C.ar    1  UNL1        0.0036
     13 C         141.1039  139.1938  164.9486 C.ar    1  UNL1        0.0305
     14 C         143.3440  143.0031  165.7979 C.3     1  UNL1        0.0455
     15 C         144.6361  143.2868  165.0909 C.3     1  UNL1        0.0066
     16 C         145.1816  142.3007  164.1009 C.3     1  UNL1        0.0052
     17 C         144.4349  141.0310  163.8178 C.3     1  UNL1        0.0288
     18 C         142.5896  138.6148  161.7987 C.3     1  UNL1        0.0884
     19 C         141.5755  137.6912  161.1916 C.3     1  UNL1        0.0382
     20 C         140.2018  138.1966  160.8642 C.3     1  UNL1        0.0703
     21 N         139.9890  139.6513  160.5668 N.3     1  UNL1       -0.2982
     22 H         140.8890  140.0250  160.2656 H       1  UNL1        0.1232
     23 O         138.1923  145.4719  166.2802 O.2     1  UNL1       -0.2726
     24 C         138.7056  144.5548  165.2100 C.2     1  UNL1        0.2497
     25 C         139.9894  144.8727  164.5021 C.3     1  UNL1        0.1129
     26 C         140.5028  143.9556  163.4320 C.2     1  UNL1       -0.0198
     27 C         139.7325  142.7206  163.0696 C.2     1  UNL1       -0.0134
     28 C         138.4488  142.4026  163.7774 C.2     1  UNL1        0.0468
     29 N         137.9353  143.3197  164.8476 N.am    1  UNL1       -0.1836
     30 C         137.6785  141.1676  163.4150 C.3     1  UNL1        0.0443
     31 C         138.1918  140.2505  162.3448 C.3     1  UNL1        0.0221
     32 C         139.4756  140.5684  161.6370 C.3     1  UNL1        0.0588
     33 C         140.2459  141.8035  161.9993 C.3     1  UNL1        0.0427
@<TRIPOS>BOND
     1    23    24    2
     2    24    25    1
     3    25    26    1
     4    26    27    2
     5    27    28    1
     6    28    29    2
     7    28    30    1
     8    30    31    1
     9    31    32    1
    10    32    21    1
    11    21    20    1
    12    20    19    1
    13    19    18    1
    14    18     1    1
    15     1     3    1
    16     3     4   ar
    17     4     5   ar
    18     5     6   ar
    19     6     7   ar
    20     7     8   ar
    21     8     9   ar
    22     9    10    1
    23     9    11   ar
    24    11    12   ar
    25    12    13   ar
    26     5    14    1
    27    14    15    1
    28    15    16    1
    29    16    17    1
    30    32    33    1
    31    29    24    1
    32    13     3   ar
    33    33    27    1
    34    17     4    1
    35    13     7   ar
    36    21    22    1
    37     1     2    1
@<TRIPOS>MOLECULE
*****
 33 37 0 0 0
SMALL
GASTEIGER

@<TRIPOS>ATOM
      1 N         140.7521  137.4373  163.4151 N.pl3   1  UNL1       -0.3328
      2 H         140.9060  136.6141  162.8975 H       1  UNL1        0.1468
      3 C         140.9881  138.7765  162.7819 C.ar    1  UNL1        0.0431
      4 C         139.9315  139.3919  161.9131 C.ar    1  UNL1        0.0045
      5 C         140.1675  140.7311  161.2799 C.ar    1  UNL1        0.0561
      6 N         141.4601  141.4549  161.5156 N.ar    1  UNL1       -0.2499
      7 C         142.5166  140.8394  162.3844 C.ar    1  UNL1        0.0829
      8 C         143.8092  141.5631  162.6201 C.ar    1  UNL1        0.0305
      9 C         144.8657  140.9477  163.4890 C.ar    1  UNL1        0.0592
     10 CL        146.1583  141.6714  163.7246 Cl      1  UNL1       -0.0822
     11 C         144.6298  139.6085  164.1221 C.ar    1  UNL1        0.0115
     12 C         143.3373  138.8848  163.8865 C.ar    1  UNL1        0.0036
     13 C         142.2806  139.5002  163.0176 C.ar    1  UNL1        0.0305
     14 C         139.1110  141.3466  160.4111 C.3     1  UNL1        0.0455
     15 C         137.8185  140.6229  160.1754 C.3     1  UNL1        0.0066
     16 C         137.5825  139.2837  160.8086 C.3     1  UNL1        0.0052
     17 C         138.6390  138.6682  161.6774 C.3     1  UNL1        0.0288
     18 C         140.2818  137.3524  164.8370 C.3     1  UNL1        0.0884
     19 C         138.8560  137.6725  165.1756 C.3     1  UNL1        0.0382
     20 C         138.5458  138.7399  166.1828 C.3     1  UNL1        0.0703
     21 N         139.3947  139.9746  166.2527 N.3     1  UNL1       -0.2982
     22 H         139.2840  140.3551  167.1926 H       1  UNL1        0.1232
     23 O         139.2648  146.6489  161.2342 O.2     1  UNL1       -0.2726
     24 C         139.5052  145.5184  162.1902 C.2     1  UNL1        0.2497
     25 C         140.8179  145.4093  162.9079 C.3     1  UNL1        0.1129
     26 C         141.0583  144.2788  163.8639 C.2     1  UNL1       -0.0198
     27 C         139.9860  143.2572  164.1023 C.2     1  UNL1       -0.0134
     28 C         138.6734  143.3663  163.3846 C.2     1  UNL1        0.0468
     29 N         138.4330  144.4969  162.4285 N.am    1  UNL1       -0.1836
     30 C         137.6012  142.3447  163.6230 C.3     1  UNL1        0.0443
     31 C         137.8416  141.2142  164.5790 C.3     1  UNL1        0.0221
     32 C         139.1543  141.1051  165.2967 C.3     1  UNL1        0.0588
     33 C         140.2265  142.1266  165.0584 C.3     1  UNL1        0.0427
@<TRIPOS>BOND
     1    23    24    2
     2    24    25    1
     3    25    26    1
     4    26    27    2
     5    27    28    1
     6    28    29    2
     7    28    30    1
     8    30    31    1
     9    31    32    1
    10    32    21    1
    11    21    20    1
    12    20    19    1
    13    19    18    1
    14    18     1    1
    15     1     3    1
    16     3     4   ar
    17     4     5   ar
    18     5     6   ar
    19     6     7   ar
    20     7     8   ar
    21     8     9   ar
    22     9    10    1
    23     9    11   ar
    24    11    12   ar
    25    12    13   ar
    26     5    14    1
    27    14    15    1
    28    15    16    1
    29    16    17    1
    30    32    33    1
    31    29    24    1
    32    13     3   ar
    33    33    27    1
    34    17     4    1
    35    13     7   ar
    36    21    22    1
    37     1     2    1
@<TRIPOS>MOLECULE
*****
 33 37 0 0 0
SMALL
GASTEIGER

@<TRIPOS>ATOM
      1 N         143.1199  138.3506  163.2522 N.pl3   1  UNL1       -0.3328
      2 H         143.7526  137.6643  163.5652 H       1  UNL1        0.1468
      3 C         142.5795  139.3670  164.2139 C.ar    1  UNL1        0.0431
      4 C         143.3466  140.6279  164.4821 C.ar    1  UNL1        0.0045
      5 C         142.8063  141.6443  165.4438 C.ar    1  UNL1        0.0561
      6 N         141.4989  141.3999  166.1373 N.ar    1  UNL1       -0.2499
      7 C         140.7318  140.1391  165.8691 C.ar    1  UNL1        0.0829
      8 C         139.4244  139.8946  166.5627 C.ar    1  UNL1        0.0305
      9 C         138.6574  138.6338  166.2945 C.ar    1  UNL1        0.0592
     10 CL        137.3500  138.3894  166.9880 Cl      1  UNL1       -0.0822
     11 C         139.1977  137.6174  165.3328 C.ar    1  UNL1        0.0115
     12 C         140.5050  137.8618  164.6392 C.ar    1  UNL1        0.0036
     13 C         141.2722  139.1226  164.9074 C.ar    1  UNL1        0.0305
     14 C         143.5733  142.9051  165.7120 C.3     1  UNL1        0.0455
     15 C         144.8807  143.1495  165.0185 C.3     1  UNL1        0.0066
     16 C         145.4210  142.1331  164.0567 C.3     1  UNL1        0.0052
     17 C         144.6540  140.8722  163.7885 C.3     1  UNL1        0.0288
     18 C         142.6962  138.3798  161.8135 C.3     1  UNL1        0.0884
     19 C         143.5561  139.0634  160.7922 C.3     1  UNL1        0.0382
     20 C         142.9520  140.0632  159.8512 C.3     1  UNL1        0.0703
     21 N         143.2697  141.5215  160.0009 N.3     1  UNL1       -0.2982
     22 H         144.2688  141.5866  160.1957 H       1  UNL1        0.1232
     23 O         138.4759  145.1253  165.8132 O.2     1  UNL1       -0.2726
     24 C         139.1751  144.3090  164.7669 C.2     1  UNL1        0.2497
     25 C         138.5766  143.0146  164.3015 C.3     1  UNL1        0.1129
     26 C         139.2758  142.1983  163.2553 C.2     1  UNL1       -0.0198
     27 C         140.5735  142.6762  162.6744 C.2     1  UNL1       -0.0134
     28 C         141.1720  143.9705  163.1397 C.2     1  UNL1        0.0468
     29 N         140.4728  144.7869  164.1860 N.am    1  UNL1       -0.1836
     30 C         142.4698  144.4485  162.5588 C.3     1  UNL1        0.0443
     31 C         143.1690  143.6321  161.5126 C.3     1  UNL1        0.0221
     32 C         142.5705  142.3378  161.0472 C.3     1  UNL1        0.0588
     33 C         141.2727  141.8598  161.6281 C.3     1  UNL1        0.0427
@<TRIPOS>BOND
     1    23    24    2
     2    24    25    1
     3    25    26    1
     4    26    27    2
     5    27    28    1
     6    28    29    2
     7    28    30    1
     8    30    31    1
     9    31    32    1
    10    32    21    1
    11    21    20    1
    12    20    19    1
    13    19    18    1
    14    18     1    1
    15     1     3    1
    16     3     4   ar
    17     4     5   ar
    18     5     6   ar
    19     6     7   ar
    20     7     8   ar
    21     8     9   ar
    22     9    10    1
    23     9    11   ar
    24    11    12   ar
    25    12    13   ar
    26     5    14    1
    27    14    15    1
    28    15    16    1
    29    16    17    1
    30    32    33    1
    31    29    24    1
    32    13     3   ar
    33    33    27    1
    34    17     4    1
    35    13     7   ar
    36    21    22    1
    37     1     2    1
@<TRIPOS>MOLECULE
*****
 33 37 0 0 0
SMALL
GASTEIGER

@<TRIPOS>ATOM
      1 N         142.3167  138.1098  163.4917 N.pl3   1  UNL1       -0.3328
      2 H         142.9267  137.3934  163.7813 H       1  UNL1        0.1468
      3 C         141.7959  139.1006  164.4902 C.ar    1  UNL1        0.0431
      4 C         140.4959  138.8442  165.1933 C.ar    1  UNL1        0.0045
      5 C         139.9751  139.8351  166.1918 C.ar    1  UNL1        0.0561
      6 N         140.7543  141.0823  166.4872 N.ar    1  UNL1       -0.2499
      7 C         142.0543  141.3387  165.7841 C.ar    1  UNL1        0.0829
      8 C         142.8335  142.5859  166.0796 C.ar    1  UNL1        0.0305
      9 C         144.1335  142.8423  165.3765 C.ar    1  UNL1        0.0592
     10 CL        144.9127  144.0895  165.6719 Cl      1  UNL1       -0.0822
     11 C         144.6543  141.8515  164.3780 C.ar    1  UNL1        0.0115
     12 C         143.8751  140.6043  164.0826 C.ar    1  UNL1        0.0036
     13 C         142.5751  140.3478  164.7856 C.ar    1  UNL1        0.0305
     14 C         138.6751  139.5787  166.8948 C.3     1  UNL1        0.0455
     15 C         137.8960  138.3315  166.5994 C.3     1  UNL1        0.0066
     16 C         138.4168  137.3407  165.6009 C.3     1  UNL1        0.0052
     17 C         139.7167  137.5970  164.8978 C.3     1  UNL1        0.0288
     18 C         141.9081  138.2105  162.0519 C.3     1  UNL1        0.0884
     19 C         142.8421  138.8186  161.0480 C.3     1  UNL1        0.0382
     20 C         142.3196  139.7842  160.0260 C.3     1  UNL1        0.0703
     21 N         142.7057  141.2320  160.0958 N.3     1  UNL1       -0.2982
     22 H         143.7166  141.2610  160.2292 H       1  UNL1        0.1232
     23 O         138.4122  145.2773  166.0078 O.2     1  UNL1       -0.2726
     24 C         139.0132  144.3905  164.9578 C.2     1  UNL1        0.2497
     25 C         138.3257  143.1149  164.5701 C.3     1  UNL1        0.1129
     26 C         138.9267  142.2281  163.5202 C.2     1  UNL1       -0.0198
     27 C         140.2152  142.6169  162.8579 C.2     1  UNL1       -0.0134
     28 C         140.9027  143.8924  163.2456 C.2     1  UNL1        0.0468
     29 N         140.3018  144.7792  164.2956 N.am    1  UNL1       -0.1836
     30 C         142.1913  144.2811  162.5834 C.3     1  UNL1        0.0443
     31 C         142.7923  143.3943  161.5334 C.3     1  UNL1        0.0221
     32 C         142.1047  142.1188  161.1457 C.3     1  UNL1        0.0588
     33 C         140.8162  141.7300  161.8079 C.3     1  UNL1        0.0427
@<TRIPOS>BOND
     1    23    24    2
     2    24    25    1
     3    25    26    1
     4    26    27    2
     5    27    28    1
     6    28    29    2
     7    28    30    1
     8    30    31    1
     9    31    32    1
    10    32    21    1
    11    21    20    1
    12    20    19    1
    13    19    18    1
    14    18     1    1
    15     1     3    1
    16     3     4   ar
    17     4     5   ar
    18     5     6   ar
    19     6     7   ar
    20     7     8   ar
    21     8     9   ar
    22     9    10    1
    23     9    11   ar
    24    11    12   ar
    25    12    13   ar
    26     5    14    1
    27    14    15    1
    28    15    16    1
    29    16    17    1
    30    32    33    1
    31    29    24    1
    32    13     3   ar
    33    33    27    1
    34    17     4    1
    35    13     7   ar
    36    21    22    1
    37     1     2    1
