@<TRIPOS>MOLECULE
*****
 36 39 0 0 0
SMALL
GASTEIGER

@<TRIPOS>ATOM
      1 N         140.0696  139.7299  162.2811 N.ar    1  UNL1       -0.2891
      2 C         140.4219  140.1539  163.6761 C.ar    1  UNL1        0.2927
      3 O         139.3451  140.6085  164.6163 O.2     1  UNL1       -0.2639
      4 C         141.8509  140.1232  164.1309 C.ar    1  UNL1        0.1889
      5 N         142.9277  139.6686  163.1908 N.ar    1  UNL1       -0.2231
      6 C         142.5754  139.2446  161.7957 C.ar    1  UNL1        0.1178
      7 C         143.6521  138.7900  160.8556 C.ar    1  UNL1        0.1194
      8 N         143.2998  138.3660  159.4605 N.ar    1  UNL1       -0.2421
      9 C         141.8708  138.3967  159.0057 C.ar    1  UNL1        0.0844
     10 C         140.7940  138.8513  159.9458 C.ar    1  UNL1        0.0380
     11 C         141.1464  139.2753  161.3408 C.ar    1  UNL1        0.0833
     12 N         142.2032  140.5472  165.5260 N.pl3   1  UNL1       -0.2866
     13 C         142.0418  139.5853  166.6656 C.3     1  UNL1        0.1096
     14 C         142.3941  140.0093  168.0605 C.3     1  UNL1        0.0939
     15 N         142.9078  141.3952  168.3160 N.3     1  UNL1       -0.2677
     16 C         143.0692  142.3571  167.1765 C.3     1  UNL1        0.0939
     17 C         142.7169  141.9331  165.7815 C.3     1  UNL1        0.1096
     18 C         143.2601  141.8192  169.7111 C.3     1  UNL1        0.1017
     19 C         142.6382  143.0504  170.3004 C.3     1  UNL1        0.1265
     20 C         141.2037  143.3785  170.0099 C.3     1  UNL1        0.0332
     21 O         143.4508  143.9536  171.1801 O.3     1  UNL1       -0.3830
     22 H         144.3499  143.5994  171.2646 H       1  UNL1        0.2104
     23 C         141.5185  137.9727  157.6106 C.ar    1  UNL1        0.0371
     24 C         140.0822  137.7703  157.2283 C.ar    1  UNL1        0.0078
     25 C         139.7300  137.3463  155.8332 C.ar    1  UNL1        0.0578
     26 C         140.8140  137.1247  154.8205 C.ar    1  UNL1        0.2250
     27 N         142.2503  137.3271  155.2028 N.ar    1  UNL1       -0.2101
     28 C         142.6025  137.7511  156.5978 C.ar    1  UNL1        0.1035
     29 O         140.4618  136.7008  153.4254 O.3     1  UNL1       -0.4561
     30 C         139.0376  136.7648  152.9592 C.3     1  UNL1        0.2542
     31 C         138.6406  139.7606  161.8262 C.3     1  UNL1        0.1412
     32 C         138.0429  141.0387  161.3168 C.3     1  UNL1        0.1666
     33 O         137.3753  141.9862  162.2690 O.3     1  UNL1       -0.3517
     34 C         138.0151  143.3052  162.5864 C.3     1  UNL1        0.1422
     35 C         138.6292  144.4517  164.8355 C.3     1  UNL1        0.0027
     36 C         137.6025  144.0630  163.8134 C.3     1  UNL1        0.0321
@<TRIPOS>BOND
     1    35    36    1
     2    36    34    1
     3    34    33    1
     4    33    32    1
     5    32    31    1
     6    31     1    1
     7     1     2   ar
     8     2     3    2
     9     2     4   ar
    10     4    12    1
    11    12    13    1
    12    13    14    1
    13    14    15    1
    14    15    18    1
    15    18    19    1
    16    19    20    1
    17    19    21    1
    18    15    16    1
    19    16    17    1
    20     4     5   ar
    21     5     6   ar
    22     6     7   ar
    23     7     8   ar
    24     8     9   ar
    25     9    23    1
    26    23    24   ar
    27    24    25   ar
    28    25    26   ar
    29    26    29    1
    30    29    30    1
    31    26    27   ar
    32    27    28   ar
    33     9    10   ar
    34    10    11   ar
    35    11     1   ar
    36    17    12    1
    37    11     6   ar
    38    28    23   ar
    39    21    22    1
@<TRIPOS>MOLECULE
*****
 36 39 0 0 0
SMALL
GASTEIGER

@<TRIPOS>ATOM
      1 N         143.4769  139.9368  160.8034 N.ar    1  UNL1       -0.2891
      2 C         143.7613  140.3360  159.3858 C.ar    1  UNL1        0.2927
      3 O         143.6246  139.3300  158.2815 O.2     1  UNL1       -0.2639
      4 C         144.1824  141.7411  159.0723 C.ar    1  UNL1        0.1889
      5 N         144.3191  142.7471  160.1765 N.ar    1  UNL1       -0.2231
      6 C         144.0346  142.3480  161.5943 C.ar    1  UNL1        0.1178
      7 C         144.1713  143.3539  162.6985 C.ar    1  UNL1        0.1194
      8 N         143.8869  142.9547  164.1161 N.ar    1  UNL1       -0.2421
      9 C         143.4658  141.5496  164.4295 C.ar    1  UNL1        0.0844
     10 C         143.3291  140.5436  163.3253 C.ar    1  UNL1        0.0380
     11 C         143.6135  140.9428  161.9077 C.ar    1  UNL1        0.0833
     12 N         144.4668  142.1403  157.6546 N.pl3   1  UNL1       -0.2866
     13 C         143.3627  142.6710  156.7890 C.3     1  UNL1        0.1096
     14 C         143.6472  143.0702  155.3714 C.3     1  UNL1        0.0939
     15 N         145.0357  142.9386  154.8194 N.3     1  UNL1       -0.2677
     16 C         146.1398  142.4078  155.6850 C.3     1  UNL1        0.0939
     17 C         145.8553  142.0087  157.1026 C.3     1  UNL1        0.1096
     18 C         145.3201  143.3377  153.4016 C.3     1  UNL1        0.1017
     19 C         145.7977  144.7261  153.0948 C.3     1  UNL1        0.1265
     20 C         147.2116  145.1187  153.4058 C.3     1  UNL1        0.0332
     21 O         144.8614  145.7219  152.4770 O.3     1  UNL1       -0.3830
     22 H         143.9938  145.3097  152.3423 H       1  UNL1        0.2104
     23 C         143.1814  141.1504  165.8472 C.ar    1  UNL1        0.0371
     24 C         143.0035  139.7028  166.1975 C.ar    1  UNL1        0.0078
     25 C         142.7190  139.3037  167.6153 C.ar    1  UNL1        0.0578
     26 C         142.6126  140.3522  168.6826 C.ar    1  UNL1        0.2250
     27 N         142.7905  141.7999  168.3323 N.ar    1  UNL1       -0.2101
     28 C         143.0749  142.1990  166.9146 C.ar    1  UNL1        0.1035
     29 O         142.3282  139.9531  170.1003 O.3     1  UNL1       -0.4561
     30 C         141.9117  140.9891  171.1019 C.3     1  UNL1        0.2542
     31 C         143.0558  138.5317  161.1168 C.3     1  UNL1        0.1412
     32 C         141.5984  138.1847  161.1925 C.3     1  UNL1        0.1666
     33 O         141.1197  137.1700  162.1882 O.3     1  UNL1       -0.3517
     34 C         141.3823  137.3729  163.6510 C.3     1  UNL1        0.1422
     35 C         139.6429  138.8784  164.8585 C.3     1  UNL1        0.0027
     36 C         140.2347  137.5236  164.6051 C.3     1  UNL1        0.0321
@<TRIPOS>BOND
     1    35    36    1
     2    36    34    1
     3    34    33    1
     4    33    32    1
     5    32    31    1
     6    31     1    1
     7     1     2   ar
     8     2     3    2
     9     2     4   ar
    10     4    12    1
    11    12    13    1
    12    13    14    1
    13    14    15    1
    14    15    18    1
    15    18    19    1
    16    19    20    1
    17    19    21    1
    18    15    16    1
    19    16    17    1
    20     4     5   ar
    21     5     6   ar
    22     6     7   ar
    23     7     8   ar
    24     8     9   ar
    25     9    23    1
    26    23    24   ar
    27    24    25   ar
    28    25    26   ar
    29    26    29    1
    30    29    30    1
    31    26    27   ar
    32    27    28   ar
    33     9    10   ar
    34    10    11   ar
    35    11     1   ar
    36    17    12    1
    37    11     6   ar
    38    28    23   ar
    39    21    22    1
@<TRIPOS>MOLECULE
*****
 36 39 0 0 0
SMALL
GASTEIGER

@<TRIPOS>ATOM
      1 N         140.6904  140.5569  161.8640 N.ar    1  UNL1       -0.2891
      2 C         140.9412  140.9306  163.2949 C.ar    1  UNL1        0.2927
      3 O         140.0500  141.9257  163.9774 O.2     1  UNL1       -0.2639
      4 C         142.0830  140.3092  164.0433 C.ar    1  UNL1        0.1889
      5 N         142.9741  139.3142  163.3608 N.ar    1  UNL1       -0.2231
      6 C         142.7234  138.9405  161.9299 C.ar    1  UNL1        0.1178
      7 C         143.6145  137.9454  161.2474 C.ar    1  UNL1        0.1194
      8 N         143.3637  137.5718  159.8165 N.ar    1  UNL1       -0.2421
      9 C         142.2218  138.1931  159.0681 C.ar    1  UNL1        0.0844
     10 C         141.3307  139.1881  159.7506 C.ar    1  UNL1        0.0380
     11 C         141.5815  139.5618  161.1815 C.ar    1  UNL1        0.0833
     12 N         142.3338  140.6830  165.4742 N.pl3   1  UNL1       -0.2866
     13 C         141.8584  139.7856  166.5781 C.3     1  UNL1        0.1096
     14 C         142.1091  140.1593  168.0090 C.3     1  UNL1        0.0939
     15 N         142.8353  141.4305  168.3359 N.3     1  UNL1       -0.2677
     16 C         143.3106  142.3279  167.2320 C.3     1  UNL1        0.0939
     17 C         143.0599  141.9541  165.8012 C.3     1  UNL1        0.1096
     18 C         143.0860  141.8042  169.7669 C.3     1  UNL1        0.1017
     19 C         142.5190  143.0781  170.3197 C.3     1  UNL1        0.1265
     20 C         141.1105  143.4765  169.9919 C.3     1  UNL1        0.0332
     21 O         143.3603  143.9535  171.2005 O.3     1  UNL1       -0.3830
     22 H         144.2371  143.5536  171.3111 H       1  UNL1        0.2104
     23 C         141.9711  137.8194  157.6372 C.ar    1  UNL1        0.0371
     24 C         140.9784  138.5945  156.8225 C.ar    1  UNL1        0.0078
     25 C         140.7277  138.2207  155.3915 C.ar    1  UNL1        0.0578
     26 C         141.4697  137.0719  154.7754 C.ar    1  UNL1        0.2250
     27 N         142.4624  136.2968  155.5902 N.ar    1  UNL1       -0.2101
     28 C         142.7131  136.6705  157.0210 C.ar    1  UNL1        0.1035
     29 O         141.2190  136.6981  153.3445 O.3     1  UNL1       -0.4561
     30 C         141.7684  135.4141  152.7975 C.3     1  UNL1        0.2542
     31 C         139.5485  141.1783  161.1156 C.3     1  UNL1        0.1412
     32 C         138.1752  140.5828  161.2133 C.3     1  UNL1        0.1666
     33 O         137.8446  139.6397  162.3319 O.3     1  UNL1       -0.3517
     34 C         138.1718  138.1814  162.2049 C.3     1  UNL1        0.1422
     35 C         139.1280  137.8647  164.5998 C.3     1  UNL1        0.0027
     36 C         139.1684  137.5527  163.1332 C.3     1  UNL1        0.0321
@<TRIPOS>BOND
     1    35    36    1
     2    36    34    1
     3    34    33    1
     4    33    32    1
     5    32    31    1
     6    31     1    1
     7     1     2   ar
     8     2     3    2
     9     2     4   ar
    10     4    12    1
    11    12    13    1
    12    13    14    1
    13    14    15    1
    14    15    18    1
    15    18    19    1
    16    19    20    1
    17    19    21    1
    18    15    16    1
    19    16    17    1
    20     4     5   ar
    21     5     6   ar
    22     6     7   ar
    23     7     8   ar
    24     8     9   ar
    25     9    23    1
    26    23    24   ar
    27    24    25   ar
    28    25    26   ar
    29    26    29    1
    30    29    30    1
    31    26    27   ar
    32    27    28   ar
    33     9    10   ar
    34    10    11   ar
    35    11     1   ar
    36    17    12    1
    37    11     6   ar
    38    28    23   ar
    39    21    22    1
@<TRIPOS>MOLECULE
*****
 36 39 0 0 0
SMALL
GASTEIGER

@<TRIPOS>ATOM
      1 N         141.6468  142.0770  161.7692 N.ar    1  UNL1       -0.2891
      2 C         141.5797  141.6289  163.1991 C.ar    1  UNL1        0.2927
      3 O         142.2211  140.3370  163.6111 O.2     1  UNL1       -0.2639
      4 C         140.8713  142.4727  164.2170 C.ar    1  UNL1        0.1889
      5 N         140.2300  143.7646  163.8051 N.ar    1  UNL1       -0.2231
      6 C         140.2971  144.2127  162.3751 C.ar    1  UNL1        0.1178
      7 C         139.6558  145.5046  161.9632 C.ar    1  UNL1        0.1194
      8 N         139.7229  145.9527  160.5332 N.ar    1  UNL1       -0.2421
      9 C         140.4313  145.1089  159.5153 C.ar    1  UNL1        0.0844
     10 C         141.0726  143.8170  159.9273 C.ar    1  UNL1        0.0380
     11 C         141.0055  143.3690  161.3572 C.ar    1  UNL1        0.0833
     12 N         140.8043  142.0246  165.6470 N.pl3   1  UNL1       -0.2866
     13 C         139.7463  141.0534  166.0798 C.3     1  UNL1        0.1096
     14 C         139.6792  140.6053  167.5097 C.3     1  UNL1        0.0939
     15 N         140.6703  141.1284  168.5068 N.3     1  UNL1       -0.2677
     16 C         141.7283  142.0996  168.0741 C.3     1  UNL1        0.0939
     17 C         141.7953  142.5477  166.6441 C.3     1  UNL1        0.1096
     18 C         140.6032  140.6803  169.9368 C.3     1  UNL1        0.1017
     19 C         141.7940  140.8507  170.8328 C.3     1  UNL1        0.1265
     20 C         142.9568  139.9096  170.7220 C.3     1  UNL1        0.0332
     21 O         141.8221  141.9622  171.8396 O.3     1  UNL1       -0.3830
     22 H         140.9997  142.4731  171.7803 H       1  UNL1        0.2104
     23 C         140.4983  145.5570  158.0853 C.ar    1  UNL1        0.0371
     24 C         139.5204  146.5713  157.5706 C.ar    1  UNL1        0.0078
     25 C         139.5875  147.0194  156.1406 C.ar    1  UNL1        0.0578
     26 C         140.6325  146.4533  155.2254 C.ar    1  UNL1        0.2250
     27 N         141.6104  145.4390  155.7403 N.ar    1  UNL1       -0.2101
     28 C         141.5433  144.9909  157.1702 C.ar    1  UNL1        0.1035
     29 O         140.6995  146.9014  153.7955 O.3     1  UNL1       -0.4561
     30 C         140.3618  148.3181  153.4370 C.3     1  UNL1        0.2542
     31 C         142.3552  141.2332  160.7512 C.3     1  UNL1        0.1412
     32 C         143.8160  141.4467  160.4858 C.3     1  UNL1        0.1666
     33 O         144.4433  142.7791  160.7708 O.3     1  UNL1       -0.3517
     34 C         144.7606  143.1719  162.1832 C.3     1  UNL1        0.1422
     35 C         143.9549  144.4962  164.2682 C.3     1  UNL1        0.0027
     36 C         144.1289  144.3936  162.7819 C.3     1  UNL1        0.0321
@<TRIPOS>BOND
     1    35    36    1
     2    36    34    1
     3    34    33    1
     4    33    32    1
     5    32    31    1
     6    31     1    1
     7     1     2   ar
     8     2     3    2
     9     2     4   ar
    10     4    12    1
    11    12    13    1
    12    13    14    1
    13    14    15    1
    14    15    18    1
    15    18    19    1
    16    19    20    1
    17    19    21    1
    18    15    16    1
    19    16    17    1
    20     4     5   ar
    21     5     6   ar
    22     6     7   ar
    23     7     8   ar
    24     8     9   ar
    25     9    23    1
    26    23    24   ar
    27    24    25   ar
    28    25    26   ar
    29    26    29    1
    30    29    30    1
    31    26    27   ar
    32    27    28   ar
    33     9    10   ar
    34    10    11   ar
    35    11     1   ar
    36    17    12    1
    37    11     6   ar
    38    28    23   ar
    39    21    22    1
@<TRIPOS>MOLECULE
*****
 36 39 0 0 0
SMALL
GASTEIGER

@<TRIPOS>ATOM
      1 N         140.8016  142.2946  161.7991 N.ar    1  UNL1       -0.2891
      2 C         141.1439  141.9880  163.2269 C.ar    1  UNL1        0.2927
      3 O         142.1667  142.8156  163.9473 O.2     1  UNL1       -0.2639
      4 C         140.4635  140.8537  163.9344 C.ar    1  UNL1        0.1889
      5 N         139.4408  140.0261  163.2140 N.ar    1  UNL1       -0.2231
      6 C         139.0984  140.3326  161.7861 C.ar    1  UNL1        0.1178
      7 C         138.0756  139.5050  161.0658 C.ar    1  UNL1        0.1194
      8 N         137.7333  139.8116  159.6379 N.ar    1  UNL1       -0.2421
      9 C         138.4137  140.9459  158.9305 C.ar    1  UNL1        0.0844
     10 C         139.4364  141.7735  159.6508 C.ar    1  UNL1        0.0380
     11 C         139.7788  141.4669  161.0787 C.ar    1  UNL1        0.0833
     12 N         140.8059  140.5471  165.3623 N.pl3   1  UNL1       -0.2866
     13 C         142.0351  139.7502  165.6843 C.3     1  UNL1        0.1096
     14 C         142.3775  139.4436  167.1122 C.3     1  UNL1        0.0939
     15 N         141.4905  139.9340  168.2180 N.3     1  UNL1       -0.2677
     16 C         140.2613  140.7310  167.8960 C.3     1  UNL1        0.0939
     17 C         139.9189  141.0375  166.4681 C.3     1  UNL1        0.1096
     18 C         141.8329  139.6275  169.6459 C.3     1  UNL1        0.1017
     19 C         143.0111  140.2921  170.2940 C.3     1  UNL1        0.1265
     20 C         143.4015  141.6837  169.8928 C.3     1  UNL1        0.0332
     21 O         143.7989  139.5651  171.3432 O.3     1  UNL1       -0.3830
     22 H         143.4166  138.6846  171.4825 H       1  UNL1        0.2104
     23 C         138.0713  141.2524  157.5026 C.ar    1  UNL1        0.0371
     24 C         139.1386  141.7240  156.5600 C.ar    1  UNL1        0.0078
     25 C         138.7962  142.0306  155.1321 C.ar    1  UNL1        0.0578
     26 C         137.3865  141.8656  154.6468 C.ar    1  UNL1        0.2250
     27 N         136.3192  141.3940  155.5895 N.ar    1  UNL1       -0.2101
     28 C         136.6616  141.0874  157.0173 C.ar    1  UNL1        0.1035
     29 O         137.0441  142.1721  153.2190 O.3     1  UNL1       -0.4561
     30 C         136.2822  143.4194  152.8816 C.3     1  UNL1        0.2542
     31 C         141.4820  143.4288  161.0916 C.3     1  UNL1        0.1412
     32 C         140.9002  144.8100  161.1563 C.3     1  UNL1        0.1666
     33 O         140.3582  145.3355  162.4524 O.3     1  UNL1       -0.3517
     34 C         138.9018  145.1780  162.7751 C.3     1  UNL1        0.1422
     35 C         138.7344  144.8398  165.3457 C.3     1  UNL1        0.0027
     36 C         138.4797  144.3485  163.9515 C.3     1  UNL1        0.0321
@<TRIPOS>BOND
     1    35    36    1
     2    36    34    1
     3    34    33    1
     4    33    32    1
     5    32    31    1
     6    31     1    1
     7     1     2   ar
     8     2     3    2
     9     2     4   ar
    10     4    12    1
    11    12    13    1
    12    13    14    1
    13    14    15    1
    14    15    18    1
    15    18    19    1
    16    19    20    1
    17    19    21    1
    18    15    16    1
    19    16    17    1
    20     4     5   ar
    21     5     6   ar
    22     6     7   ar
    23     7     8   ar
    24     8     9   ar
    25     9    23    1
    26    23    24   ar
    27    24    25   ar
    28    25    26   ar
    29    26    29    1
    30    29    30    1
    31    26    27   ar
    32    27    28   ar
    33     9    10   ar
    34    10    11   ar
    35    11     1   ar
    36    17    12    1
    37    11     6   ar
    38    28    23   ar
    39    21    22    1
@<TRIPOS>MOLECULE
*****
 36 39 0 0 0
SMALL
GASTEIGER

@<TRIPOS>ATOM
      1 N         142.3105  143.0482  160.6646 N.ar    1  UNL1       -0.2891
      2 C         143.0449  143.1899  159.3644 C.ar    1  UNL1        0.2927
      3 O         142.8743  144.4300  158.5379 O.2     1  UNL1       -0.2639
      4 C         143.9498  142.0914  158.8906 C.ar    1  UNL1        0.1889
      5 N         144.1204  140.8513  159.7171 N.ar    1  UNL1       -0.2231
      6 C         143.3860  140.7097  161.0174 C.ar    1  UNL1        0.1178
      7 C         143.5566  139.4696  161.8438 C.ar    1  UNL1        0.1194
      8 N         142.8222  139.3280  163.1440 N.ar    1  UNL1       -0.2421
      9 C         141.9172  140.4264  163.6178 C.ar    1  UNL1        0.0844
     10 C         141.7466  141.6665  162.7913 C.ar    1  UNL1        0.0380
     11 C         142.4810  141.8081  161.4911 C.ar    1  UNL1        0.0833
     12 N         144.6842  142.2331  157.5904 N.pl3   1  UNL1       -0.2866
     13 C         143.9480  142.0793  156.2926 C.3     1  UNL1        0.1096
     14 C         144.6824  142.2210  154.9924 C.3     1  UNL1        0.0939
     15 N         146.1530  142.5164  154.9900 N.3     1  UNL1       -0.2677
     16 C         146.8892  142.6702  156.2878 C.3     1  UNL1        0.0939
     17 C         146.1548  142.5285  157.5880 C.3     1  UNL1        0.1096
     18 C         146.8874  142.6581  153.6897 C.3     1  UNL1        0.1017
     19 C         147.7372  143.8678  153.4362 C.3     1  UNL1        0.1265
     20 C         147.1298  145.2378  153.5004 C.3     1  UNL1        0.0332
     21 O         149.1944  143.7076  153.1186 O.3     1  UNL1       -0.3830
     22 H         149.4232  142.7650  153.1168 H       1  UNL1        0.2104
     23 C         141.1828  140.2847  164.9181 C.ar    1  UNL1        0.0371
     24 C         139.6840  140.3367  164.9424 C.ar    1  UNL1        0.0078
     25 C         138.9495  140.1951  166.2427 C.ar    1  UNL1        0.0578
     26 C         139.7141  140.0014  167.5186 C.ar    1  UNL1        0.2250
     27 N         141.2131  139.9494  167.4942 N.ar    1  UNL1       -0.2101
     28 C         141.9474  140.0911  166.1940 C.ar    1  UNL1        0.1035
     29 O         138.9798  139.8597  168.8188 O.3     1  UNL1       -0.4561
     30 C         139.6457  140.2558  170.1032 C.3     1  UNL1        0.2542
     31 C         141.4055  144.1467  161.1383 C.3     1  UNL1        0.1412
     32 C         140.0007  144.2370  160.6202 C.3     1  UNL1        0.1666
     33 O         138.8435  144.1401  161.5696 O.3     1  UNL1       -0.3517
     34 C         138.8776  144.8832  162.8721 C.3     1  UNL1        0.1422
     35 C         138.6162  144.8265  165.4563 C.3     1  UNL1        0.0027
     36 C         138.9256  144.1265  164.1663 C.3     1  UNL1        0.0321
@<TRIPOS>BOND
     1    35    36    1
     2    36    34    1
     3    34    33    1
     4    33    32    1
     5    32    31    1
     6    31     1    1
     7     1     2   ar
     8     2     3    2
     9     2     4   ar
    10     4    12    1
    11    12    13    1
    12    13    14    1
    13    14    15    1
    14    15    18    1
    15    18    19    1
    16    19    20    1
    17    19    21    1
    18    15    16    1
    19    16    17    1
    20     4     5   ar
    21     5     6   ar
    22     6     7   ar
    23     7     8   ar
    24     8     9   ar
    25     9    23    1
    26    23    24   ar
    27    24    25   ar
    28    25    26   ar
    29    26    29    1
    30    29    30    1
    31    26    27   ar
    32    27    28   ar
    33     9    10   ar
    34    10    11   ar
    35    11     1   ar
    36    17    12    1
    37    11     6   ar
    38    28    23   ar
    39    21    22    1
@<TRIPOS>MOLECULE
*****
 36 39 0 0 0
SMALL
GASTEIGER

@<TRIPOS>ATOM
      1 N         141.8274  143.0126  161.6708 N.ar    1  UNL1       -0.2891
      2 C         141.7151  143.5550  160.2769 C.ar    1  UNL1        0.2927
      3 O         142.9543  143.8473  159.4837 O.2     1  UNL1       -0.2639
      4 C         140.3636  143.8051  159.6760 C.ar    1  UNL1        0.1889
      5 N         139.1245  143.5128  160.4691 N.ar    1  UNL1       -0.2231
      6 C         139.2368  142.9704  161.8632 C.ar    1  UNL1        0.1178
      7 C         137.9976  142.6782  162.6563 C.ar    1  UNL1        0.1194
      8 N         138.1099  142.1358  164.0502 N.ar    1  UNL1       -0.2421
      9 C         139.4614  141.8857  164.6511 C.ar    1  UNL1        0.0844
     10 C         140.7005  142.1780  163.8580 C.ar    1  UNL1        0.0380
     11 C         140.5882  142.7203  162.4640 C.ar    1  UNL1        0.0833
     12 N         140.2514  144.3475  158.2820 N.pl3   1  UNL1       -0.2866
     13 C         140.0848  143.4094  157.1234 C.3     1  UNL1        0.1096
     14 C         139.9725  143.9518  155.7295 C.3     1  UNL1        0.0939
     15 N         140.0268  145.4323  155.4941 N.3     1  UNL1       -0.2677
     16 C         140.1934  146.3703  156.6526 C.3     1  UNL1        0.0939
     17 C         140.3057  145.8279  158.0466 C.3     1  UNL1        0.1096
     18 C         139.9146  145.9746  154.1000 C.3     1  UNL1        0.1017
     19 C         141.1356  146.4827  153.3923 C.3     1  UNL1        0.1265
     20 C         141.0660  147.7495  152.5921 C.3     1  UNL1        0.0332
     21 O         142.4263  145.7240  153.4848 O.3     1  UNL1       -0.3830
     22 H         142.2992  144.9357  154.0356 H       1  UNL1        0.2104
     23 C         139.5737  141.3433  166.0452 C.ar    1  UNL1        0.0371
     24 C         140.3095  142.1212  167.0956 C.ar    1  UNL1        0.0078
     25 C         140.4217  141.5788  168.4896 C.ar    1  UNL1        0.0578
     26 C         139.7982  140.2586  168.8332 C.ar    1  UNL1        0.2250
     27 N         139.0623  139.4807  167.7826 N.ar    1  UNL1       -0.2101
     28 C         138.9501  140.0230  166.3887 C.ar    1  UNL1        0.1035
     29 O         139.9104  139.7162  170.2271 O.3     1  UNL1       -0.4561
     30 C         140.6783  140.4759  171.2679 C.3     1  UNL1        0.2542
     31 C         143.1789  142.7625  162.2717 C.3     1  UNL1        0.1412
     32 C         143.8155  141.4098  162.1491 C.3     1  UNL1        0.1666
     33 O         144.6150  140.8512  163.2886 O.3     1  UNL1       -0.3517
     34 C         144.0077  139.8253  164.1990 C.3     1  UNL1        0.1422
     35 C         142.7326  139.2283  166.3824 C.3     1  UNL1        0.0027
     36 C         143.3163  140.2557  165.4586 C.3     1  UNL1        0.0321
@<TRIPOS>BOND
     1    35    36    1
     2    36    34    1
     3    34    33    1
     4    33    32    1
     5    32    31    1
     6    31     1    1
     7     1     2   ar
     8     2     3    2
     9     2     4   ar
    10     4    12    1
    11    12    13    1
    12    13    14    1
    13    14    15    1
    14    15    18    1
    15    18    19    1
    16    19    20    1
    17    19    21    1
    18    15    16    1
    19    16    17    1
    20     4     5   ar
    21     5     6   ar
    22     6     7   ar
    23     7     8   ar
    24     8     9   ar
    25     9    23    1
    26    23    24   ar
    27    24    25   ar
    28    25    26   ar
    29    26    29    1
    30    29    30    1
    31    26    27   ar
    32    27    28   ar
    33     9    10   ar
    34    10    11   ar
    35    11     1   ar
    36    17    12    1
    37    11     6   ar
    38    28    23   ar
    39    21    22    1
@<TRIPOS>MOLECULE
*****
 36 39 0 0 0
SMALL
GASTEIGER

@<TRIPOS>ATOM
      1 N         140.8744  140.7301  161.4041 N.ar    1  UNL1       -0.2891
      2 C         141.0760  140.2833  159.9865 C.ar    1  UNL1        0.2927
      3 O         141.1246  141.2957  158.8807 O.2     1  UNL1       -0.2639
      4 C         141.2290  138.8240  159.6746 C.ar    1  UNL1        0.1889
      5 N         141.1804  137.8116  160.7803 N.ar    1  UNL1       -0.2231
      6 C         140.9788  138.2584  162.1980 C.ar    1  UNL1        0.1178
      7 C         140.9303  137.2460  163.3037 C.ar    1  UNL1        0.1194
      8 N         140.7287  137.6928  164.7213 N.ar    1  UNL1       -0.2421
      9 C         140.5757  139.1520  165.0332 C.ar    1  UNL1        0.0844
     10 C         140.6243  140.1644  163.9275 C.ar    1  UNL1        0.0380
     11 C         140.8258  139.7176  162.5099 C.ar    1  UNL1        0.0833
     12 N         141.4306  138.3773  158.2568 N.pl3   1  UNL1       -0.2866
     13 C         142.7898  138.4659  157.6286 C.3     1  UNL1        0.1096
     14 C         142.9913  138.0191  156.2110 C.3     1  UNL1        0.0939
     15 N         141.8337  137.4837  155.4216 N.3     1  UNL1       -0.2677
     16 C         140.4745  137.3951  156.0498 C.3     1  UNL1        0.0939
     17 C         140.2729  137.8419  157.4674 C.3     1  UNL1        0.1096
     18 C         142.0352  137.0369  154.0039 C.3     1  UNL1        0.1017
     19 C         142.2252  135.5812  153.6961 C.3     1  UNL1        0.1265
     20 C         142.8457  134.6737  154.7165 C.3     1  UNL1        0.0332
     21 O         141.7946  135.0330  152.3679 O.3     1  UNL1       -0.3830
     22 H         141.4165  135.7468  151.8308 H       1  UNL1        0.2104
     23 C         140.3741  139.5988  166.4509 C.ar    1  UNL1        0.0371
     24 C         141.4678  140.3326  167.1687 C.ar    1  UNL1        0.0078
     25 C         141.2662  140.7794  168.5864 C.ar    1  UNL1        0.0578
     26 C         139.9709  140.4923  169.2863 C.ar    1  UNL1        0.2250
     27 N         138.8772  139.7585  168.5684 N.ar    1  UNL1       -0.2101
     28 C         139.0788  139.3117  167.1507 C.ar    1  UNL1        0.1035
     29 O         139.7693  140.9391  170.7039 O.3     1  UNL1       -0.4561
     30 C         140.7955  141.8070  171.3698 C.3     1  UNL1        0.2542
     31 C         140.7214  142.1893  161.7160 C.3     1  UNL1        0.1412
     32 C         139.3557  142.8084  161.7565 C.3     1  UNL1        0.1666
     33 O         139.1768  144.1953  162.2990 O.3     1  UNL1       -0.3517
     34 C         138.2783  144.4298  163.4770 C.3     1  UNL1        0.1422
     35 C         139.7536  143.6005  165.4482 C.3     1  UNL1        0.0027
     36 C         138.8684  144.6469  164.8389 C.3     1  UNL1        0.0321
@<TRIPOS>BOND
     1    35    36    1
     2    36    34    1
     3    34    33    1
     4    33    32    1
     5    32    31    1
     6    31     1    1
     7     1     2   ar
     8     2     3    2
     9     2     4   ar
    10     4    12    1
    11    12    13    1
    12    13    14    1
    13    14    15    1
    14    15    18    1
    15    18    19    1
    16    19    20    1
    17    19    21    1
    18    15    16    1
    19    16    17    1
    20     4     5   ar
    21     5     6   ar
    22     6     7   ar
    23     7     8   ar
    24     8     9   ar
    25     9    23    1
    26    23    24   ar
    27    24    25   ar
    28    25    26   ar
    29    26    29    1
    30    29    30    1
    31    26    27   ar
    32    27    28   ar
    33     9    10   ar
    34    10    11   ar
    35    11     1   ar
    36    17    12    1
    37    11     6   ar
    38    28    23   ar
    39    21    22    1
@<TRIPOS>MOLECULE
*****
 36 39 0 0 0
SMALL
GASTEIGER

@<TRIPOS>ATOM
      1 N         142.5656  142.7153  162.1589 N.ar    1  UNL1       -0.2891
      2 C         142.2000  142.4374  163.5869 C.ar    1  UNL1        0.2927
      3 O         141.7129  143.5505  164.4666 O.2     1  UNL1       -0.2639
      4 C         142.3213  141.0465  164.1351 C.ar    1  UNL1        0.1889
      5 N         142.8083  139.9334  163.2554 N.ar    1  UNL1       -0.2231
      6 C         143.1740  140.2113  161.8274 C.ar    1  UNL1        0.1178
      7 C         143.6610  139.0983  160.9477 C.ar    1  UNL1        0.1194
      8 N         144.0267  139.3762  159.5198 N.ar    1  UNL1       -0.2421
      9 C         143.9053  140.7671  158.9715 C.ar    1  UNL1        0.0844
     10 C         143.4183  141.8801  159.8512 C.ar    1  UNL1        0.0380
     11 C         143.0527  141.6022  161.2792 C.ar    1  UNL1        0.0833
     12 N         141.9556  140.7686  165.5631 N.pl3   1  UNL1       -0.2866
     13 C         142.9188  141.1042  166.6629 C.3     1  UNL1        0.1096
     14 C         142.5531  140.8263  168.0908 C.3     1  UNL1        0.0939
     15 N         141.2242  140.2129  168.4189 N.3     1  UNL1       -0.2677
     16 C         140.2610  139.8773  167.3191 C.3     1  UNL1        0.0939
     17 C         140.6267  140.1551  165.8912 C.3     1  UNL1        0.1096
     18 C         140.8584  139.9350  169.8469 C.3     1  UNL1        0.1017
     19 C         141.1387  140.9597  170.9059 C.3     1  UNL1        0.1265
     20 C         140.4214  142.2768  170.8836 C.3     1  UNL1        0.0332
     21 O         142.1363  140.6672  171.9872 O.3     1  UNL1       -0.3830
     22 H         142.5052  139.7798  171.8554 H       1  UNL1        0.2104
     23 C         144.2710  141.0450  157.5435 C.ar    1  UNL1        0.0371
     24 C         145.5077  141.8321  157.2255 C.ar    1  UNL1        0.0078
     25 C         145.8734  142.1099  155.7975 C.ar    1  UNL1        0.0578
     26 C         145.0024  141.6007  154.6876 C.ar    1  UNL1        0.2250
     27 N         143.7657  140.8135  155.0056 N.ar    1  UNL1       -0.2101
     28 C         143.4001  140.5357  156.4336 C.ar    1  UNL1        0.1035
     29 O         145.3680  141.8785  153.2596 O.3     1  UNL1       -0.4561
     30 C         145.0722  143.2199  152.6571 C.3     1  UNL1        0.2542
     31 C         142.4443  144.1063  161.6107 C.3     1  UNL1        0.1412
     32 C         141.1449  144.5696  161.0217 C.3     1  UNL1        0.1666
     33 O         140.0121  144.9651  161.9219 O.3     1  UNL1       -0.3517
     34 C         138.9456  143.9685  162.2674 C.3     1  UNL1        0.1422
     35 C         138.3386  144.4902  164.7391 C.3     1  UNL1        0.0027
     36 C         137.9204  144.2987  163.3114 C.3     1  UNL1        0.0321
@<TRIPOS>BOND
     1    35    36    1
     2    36    34    1
     3    34    33    1
     4    33    32    1
     5    32    31    1
     6    31     1    1
     7     1     2   ar
     8     2     3    2
     9     2     4   ar
    10     4    12    1
    11    12    13    1
    12    13    14    1
    13    14    15    1
    14    15    18    1
    15    18    19    1
    16    19    20    1
    17    19    21    1
    18    15    16    1
    19    16    17    1
    20     4     5   ar
    21     5     6   ar
    22     6     7   ar
    23     7     8   ar
    24     8     9   ar
    25     9    23    1
    26    23    24   ar
    27    24    25   ar
    28    25    26   ar
    29    26    29    1
    30    29    30    1
    31    26    27   ar
    32    27    28   ar
    33     9    10   ar
    34    10    11   ar
    35    11     1   ar
    36    17    12    1
    37    11     6   ar
    38    28    23   ar
    39    21    22    1
