@<TRIPOS>MOLECULE
*****
 30 34 0 0 0
SMALL
GASTEIGER

@<TRIPOS>ATOM
      1 N         138.5309  139.3879  164.1179 N.3     1  UNL1       -0.2725
      2 C         138.3696  138.4063  165.2406 C.3     1  UNL1        0.0738
      3 C         138.8243  138.7673  166.6237 C.3     1  UNL1        0.0376
      4 C         139.4404  140.1100  166.8841 C.3     1  UNL1        0.0841
      5 C         139.6018  141.0916  165.7613 C.3     1  UNL1        0.0376
      6 C         139.1470  140.7305  164.3783 C.3     1  UNL1        0.0738
      7 N         139.8952  140.4710  168.2671 N.am    1  UNL1       -0.2423
      8 C         139.1524  140.1926  169.5402 C.2     1  UNL1        0.3309
      9 O         137.8245  139.5044  169.6538 O.2     1  UNL1       -0.2501
     10 N         139.9707  140.7234  170.6798 N.am    1  UNL1       -0.1647
     11 C         141.2193  141.3298  170.1110 C.2     1  UNL1        0.0706
     12 C         142.3925  142.0038  170.7583 C.3     1  UNL1        0.0705
     13 C         143.5193  142.5220  169.9143 C.2     1  UNL1       -0.0199
     14 C         143.4726  142.3660  168.4231 C.2     1  UNL1       -0.0029
     15 C         142.2992  141.6919  167.7759 C.2     1  UNL1        0.0156
     16 C         141.1725  141.1738  168.6199 C.2     1  UNL1        0.0668
     17 C         138.0762  139.0269  162.7349 C.3     1  UNL1        0.0739
     18 C         139.0754  138.5784  161.7100 C.3     1  UNL1        0.0392
     19 C         140.2694  137.7729  162.1289 C.3     1  UNL1        0.0996
     20 O         141.3691  138.5009  159.4343 O.2     1  UNL1       -0.2745
     21 C         142.1960  138.7210  160.6663 C.2     1  UNL1        0.2297
     22 C         143.5728  139.3052  160.5510 C.3     1  UNL1        0.0903
     23 C         144.3997  139.5254  161.7829 C.3     1  UNL1        0.0372
     24 C         143.8498  139.1614  163.1303 C.ar    1  UNL1       -0.0080
     25 C         144.6767  139.3816  164.3622 C.ar    1  UNL1       -0.0030
     26 C         144.1269  139.0176  165.7095 C.ar    1  UNL1       -0.0002
     27 C         142.7501  138.4334  165.8248 C.ar    1  UNL1        0.0013
     28 C         141.9232  138.2132  164.5928 C.ar    1  UNL1        0.0146
     29 C         142.4731  138.5772  163.2456 C.ar    1  UNL1        0.0498
     30 N         141.6462  138.3571  162.0136 N.am    1  UNL1       -0.2589
@<TRIPOS>BOND
     1    20    21    2
     2    21    22    1
     3    22    23    1
     4    23    24    1
     5    24    25   ar
     6    25    26   ar
     7    26    27   ar
     8    27    28   ar
     9    28    29   ar
    10    29    30    1
    11    30    19    1
    12    19    18    1
    13    18    17    1
    14    17     1    1
    15     1     2    1
    16     2     3    1
    17     3     4    1
    18     4     7    1
    19     7     8   am
    20     8     9    2
    21     8    10    1
    22    10    11    2
    23    11    12    1
    24    12    13    1
    25    13    14    2
    26    14    15    1
    27    15    16    2
    28     4     5    1
    29     5     6    1
    30    30    21   am
    31     6     1    1
    32    29    24   ar
    33    16     7    1
    34    16    11    1
@<TRIPOS>MOLECULE
*****
 30 34 0 0 0
SMALL
GASTEIGER

@<TRIPOS>ATOM
      1 N         141.2966  140.1475  162.4214 N.3     1  UNL1       -0.2725
      2 C         142.6798  140.4342  162.9257 C.3     1  UNL1        0.0738
      3 C         142.9439  140.4886  164.4014 C.3     1  UNL1        0.0376
      4 C         141.8246  140.2562  165.3726 C.3     1  UNL1        0.0841
      5 C         140.4413  139.9695  164.8681 C.3     1  UNL1        0.0376
      6 C         140.1773  139.9152  163.3926 C.3     1  UNL1        0.0738
      7 N         142.0886  140.3105  166.8481 N.am    1  UNL1       -0.2423
      8 C         142.9368  139.3501  167.6280 C.2     1  UNL1        0.3309
      9 O         143.6699  138.1668  167.0692 O.2     1  UNL1       -0.2501
     10 N         142.9231  139.7808  169.0647 N.am    1  UNL1       -0.1647
     11 C         142.0664  141.0074  169.1729 C.2     1  UNL1        0.0706
     12 C         141.6895  141.8684  170.3418 C.3     1  UNL1        0.0705
     13 C         140.7967  143.0570  170.1408 C.2     1  UNL1       -0.0199
     14 C         140.2809  143.3844  168.7708 C.2     1  UNL1       -0.0029
     15 C         140.6579  142.5232  167.6019 C.2     1  UNL1        0.0156
     16 C         141.5507  141.3348  167.8029 C.2     1  UNL1        0.0668
     17 C         141.0327  140.0932  160.9458 C.3     1  UNL1        0.0739
     18 C         141.3884  141.2629  160.0767 C.3     1  UNL1        0.0392
     19 C         140.7439  142.5966  160.3134 C.3     1  UNL1        0.0996
     20 O         143.5146  143.6795  160.7017 O.2     1  UNL1       -0.2745
     21 C         142.4615  143.9231  161.7417 C.2     1  UNL1        0.2297
     22 C         142.7938  144.7081  162.9759 C.3     1  UNL1        0.0903
     23 C         141.7407  144.9518  164.0160 C.3     1  UNL1        0.0372
     24 C         140.3554  144.4103  163.8219 C.ar    1  UNL1       -0.0080
     25 C         139.3023  144.6539  164.8619 C.ar    1  UNL1       -0.0030
     26 C         137.9170  144.1125  164.6677 C.ar    1  UNL1       -0.0002
     27 C         137.5848  143.3274  163.4335 C.ar    1  UNL1        0.0013
     28 C         138.6378  143.0838  162.3935 C.ar    1  UNL1        0.0146
     29 C         140.0231  143.6252  162.5876 C.ar    1  UNL1        0.0498
     30 N         141.0762  143.3816  161.5476 N.am    1  UNL1       -0.2589
@<TRIPOS>BOND
     1    20    21    2
     2    21    22    1
     3    22    23    1
     4    23    24    1
     5    24    25   ar
     6    25    26   ar
     7    26    27   ar
     8    27    28   ar
     9    28    29   ar
    10    29    30    1
    11    30    19    1
    12    19    18    1
    13    18    17    1
    14    17     1    1
    15     1     2    1
    16     2     3    1
    17     3     4    1
    18     4     7    1
    19     7     8   am
    20     8     9    2
    21     8    10    1
    22    10    11    2
    23    11    12    1
    24    12    13    1
    25    13    14    2
    26    14    15    1
    27    15    16    2
    28     4     5    1
    29     5     6    1
    30    30    21   am
    31     6     1    1
    32    29    24   ar
    33    16     7    1
    34    16    11    1
@<TRIPOS>MOLECULE
*****
 30 34 0 0 0
SMALL
GASTEIGER

@<TRIPOS>ATOM
      1 N         140.3551  140.0661  162.0918 N.3     1  UNL1       -0.2725
      2 C         141.4289  140.3051  163.1115 C.3     1  UNL1        0.0738
      3 C         141.0932  140.2840  164.5733 C.3     1  UNL1        0.0376
      4 C         139.6836  140.0239  165.0154 C.3     1  UNL1        0.0841
      5 C         138.6098  139.7849  163.9957 C.3     1  UNL1        0.0376
      6 C         138.9455  139.8060  162.5339 C.3     1  UNL1        0.0738
      7 N         139.3479  140.0029  166.4772 N.am    1  UNL1       -0.2423
      8 C         138.4856  138.9892  167.1692 C.2     1  UNL1        0.3309
      9 O         137.8077  137.8186  166.5210 O.2     1  UNL1       -0.2501
     10 N         138.4203  139.3516  168.6233 N.am    1  UNL1       -0.1647
     11 C         139.2422  140.5893  168.8300 C.2     1  UNL1        0.0706
     12 C         139.5425  141.4017  170.0546 C.3     1  UNL1        0.0705
     13 C         140.4163  142.6167  169.9528 C.2     1  UNL1       -0.0199
     14 C         140.9896  143.0193  168.6264 C.2     1  UNL1       -0.0029
     15 C         140.6892  142.2068  167.4018 C.2     1  UNL1        0.0156
     16 C         139.8155  140.9918  167.5036 C.2     1  UNL1        0.0668
     17 C         140.6908  140.0872  160.6301 C.3     1  UNL1        0.0739
     18 C         141.2577  141.3291  160.0085 C.3     1  UNL1        0.0392
     19 C         140.6359  142.6633  160.2975 C.3     1  UNL1        0.0996
     20 O         143.4480  143.6530  160.6332 O.2     1  UNL1       -0.2745
     21 C         142.4285  143.9136  161.7022 C.2     1  UNL1        0.2297
     22 C         142.8151  144.6691  162.9391 C.3     1  UNL1        0.0903
     23 C         141.7956  144.9298  164.0080 C.3     1  UNL1        0.0372
     24 C         140.3895  144.4350  163.8402 C.ar    1  UNL1       -0.0080
     25 C         139.3700  144.6956  164.9091 C.ar    1  UNL1       -0.0030
     26 C         137.9640  144.2008  164.7412 C.ar    1  UNL1       -0.0002
     27 C         137.5775  143.4453  163.5044 C.ar    1  UNL1        0.0013
     28 C         138.5969  143.1847  162.4354 C.ar    1  UNL1        0.0146
     29 C         140.0029  143.6795  162.6033 C.ar    1  UNL1        0.0498
     30 N         141.0225  143.4188  161.5343 N.am    1  UNL1       -0.2589
@<TRIPOS>BOND
     1    20    21    2
     2    21    22    1
     3    22    23    1
     4    23    24    1
     5    24    25   ar
     6    25    26   ar
     7    26    27   ar
     8    27    28   ar
     9    28    29   ar
    10    29    30    1
    11    30    19    1
    12    19    18    1
    13    18    17    1
    14    17     1    1
    15     1     2    1
    16     2     3    1
    17     3     4    1
    18     4     7    1
    19     7     8   am
    20     8     9    2
    21     8    10    1
    22    10    11    2
    23    11    12    1
    24    12    13    1
    25    13    14    2
    26    14    15    1
    27    15    16    2
    28     4     5    1
    29     5     6    1
    30    30    21   am
    31     6     1    1
    32    29    24   ar
    33    16     7    1
    34    16    11    1
@<TRIPOS>MOLECULE
*****
 30 34 0 0 0
SMALL
GASTEIGER

@<TRIPOS>ATOM
      1 N         139.6282  140.9796  162.7830 N.3     1  UNL1       -0.2725
      2 C         140.4311  139.8310  163.3178 C.3     1  UNL1        0.0738
      3 C         140.6335  139.6816  164.7966 C.3     1  UNL1        0.0376
      4 C         140.0329  140.6808  165.7405 C.3     1  UNL1        0.0841
      5 C         139.2300  141.8294  165.2056 C.3     1  UNL1        0.0376
      6 C         139.0277  141.9788  163.7269 C.3     1  UNL1        0.0738
      7 N         140.2352  140.5314  167.2192 N.am    1  UNL1       -0.2423
      8 C         139.3509  139.7642  168.1570 C.2     1  UNL1        0.3309
      9 O         138.1091  139.0118  167.7807 O.2     1  UNL1       -0.2501
     10 N         139.9265  139.8816  169.5372 N.am    1  UNL1       -0.1647
     11 C         141.1666  140.7213  169.4524 C.2     1  UNL1        0.0706
     12 C         142.1466  141.1721  170.4946 C.3     1  UNL1        0.0705
     13 C         143.3176  142.0245  170.1043 C.2     1  UNL1       -0.0199
     14 C         143.5083  142.4261  168.6716 C.2     1  UNL1       -0.0029
     15 C         142.5282  141.9753  167.6294 C.2     1  UNL1        0.0156
     16 C         141.3574  141.1229  168.0198 C.2     1  UNL1        0.0668
     17 C         139.4259  141.1290  161.3042 C.3     1  UNL1        0.0739
     18 C         140.6112  141.1785  160.3863 C.3     1  UNL1        0.0392
     19 C         141.4026  142.4455  160.2508 C.3     1  UNL1        0.0996
     20 O         139.5845  144.8162  160.5244 O.2     1  UNL1       -0.2745
     21 C         140.6370  144.5545  161.5607 C.2     1  UNL1        0.2297
     22 C         140.7804  145.4783  162.7338 C.3     1  UNL1        0.0903
     23 C         141.8328  145.2167  163.7701 C.3     1  UNL1        0.0372
     24 C         142.7419  144.0314  163.6333 C.ar    1  UNL1       -0.0080
     25 C         143.7943  143.7698  164.6696 C.ar    1  UNL1       -0.0030
     26 C         144.7033  142.5845  164.5328 C.ar    1  UNL1       -0.0002
     27 C         144.5599  141.6608  163.3597 C.ar    1  UNL1        0.0013
     28 C         143.5075  141.9224  162.3234 C.ar    1  UNL1        0.0146
     29 C         142.5985  143.1076  162.4602 C.ar    1  UNL1        0.0498
     30 N         141.5460  143.3693  161.4239 N.am    1  UNL1       -0.2589
@<TRIPOS>BOND
     1    20    21    2
     2    21    22    1
     3    22    23    1
     4    23    24    1
     5    24    25   ar
     6    25    26   ar
     7    26    27   ar
     8    27    28   ar
     9    28    29   ar
    10    29    30    1
    11    30    19    1
    12    19    18    1
    13    18    17    1
    14    17     1    1
    15     1     2    1
    16     2     3    1
    17     3     4    1
    18     4     7    1
    19     7     8   am
    20     8     9    2
    21     8    10    1
    22    10    11    2
    23    11    12    1
    24    12    13    1
    25    13    14    2
    26    14    15    1
    27    15    16    2
    28     4     5    1
    29     5     6    1
    30    30    21   am
    31     6     1    1
    32    29    24   ar
    33    16     7    1
    34    16    11    1
@<TRIPOS>MOLECULE
*****
 30 34 0 0 0
SMALL
GASTEIGER

@<TRIPOS>ATOM
      1 N         141.6579  141.3724  162.0087 N.3     1  UNL1       -0.2725
      2 C         142.1336  140.2139  162.8342 C.3     1  UNL1        0.0738
      3 C         142.4329  140.4043  164.2917 C.3     1  UNL1        0.0376
      4 C         142.2566  141.7532  164.9236 C.3     1  UNL1        0.0841
      5 C         141.7809  142.9118  164.0979 C.3     1  UNL1        0.0376
      6 C         141.4815  142.7214  162.6405 C.3     1  UNL1        0.0738
      7 N         142.5559  141.9437  166.3810 N.am    1  UNL1       -0.2423
      8 C         143.6730  142.7663  166.9514 C.2     1  UNL1        0.3309
      9 O         144.6868  143.5429  166.1647 O.2     1  UNL1       -0.2501
     10 N         143.5983  142.6759  168.4468 N.am    1  UNL1       -0.1647
     11 C         142.4349  141.7975  168.8006 C.2     1  UNL1        0.0706
     12 C         141.8791  141.3513  170.1204 C.3     1  UNL1        0.0705
     13 C         140.6790  140.4524  170.1634 C.2     1  UNL1       -0.0199
     14 C         140.0348  139.9998  168.8865 C.2     1  UNL1       -0.0029
     15 C         140.5907  140.4461  167.5668 C.2     1  UNL1        0.0156
     16 C         141.7908  141.3449  167.5238 C.2     1  UNL1        0.0668
     17 C         141.3585  141.1820  160.5512 C.3     1  UNL1        0.0739
     18 C         140.3981  140.1151  160.1160 C.3     1  UNL1        0.0392
     19 C         138.9402  140.2380  160.4470 C.3     1  UNL1        0.0996
     20 O         138.0594  143.0992  160.6415 O.2     1  UNL1       -0.2745
     21 C         138.0762  142.2346  161.8672 C.2     1  UNL1        0.2297
     22 C         137.6526  142.8006  163.1901 C.3     1  UNL1        0.0903
     23 C         137.6694  141.9361  164.4158 C.3     1  UNL1        0.0372
     24 C         138.1098  140.5055  164.3186 C.ar    1  UNL1       -0.0080
     25 C         138.1266  139.6410  165.5442 C.ar    1  UNL1       -0.0030
     26 C         138.5670  138.2104  165.4469 C.ar    1  UNL1       -0.0002
     27 C         138.9906  137.6444  164.1240 C.ar    1  UNL1        0.0013
     28 C         138.9738  138.5089  162.8983 C.ar    1  UNL1        0.0146
     29 C         138.5334  139.9394  162.9956 C.ar    1  UNL1        0.0498
     30 N         138.5166  140.8040  161.7699 N.am    1  UNL1       -0.2589
@<TRIPOS>BOND
     1    20    21    2
     2    21    22    1
     3    22    23    1
     4    23    24    1
     5    24    25   ar
     6    25    26   ar
     7    26    27   ar
     8    27    28   ar
     9    28    29   ar
    10    29    30    1
    11    30    19    1
    12    19    18    1
    13    18    17    1
    14    17     1    1
    15     1     2    1
    16     2     3    1
    17     3     4    1
    18     4     7    1
    19     7     8   am
    20     8     9    2
    21     8    10    1
    22    10    11    2
    23    11    12    1
    24    12    13    1
    25    13    14    2
    26    14    15    1
    27    15    16    2
    28     4     5    1
    29     5     6    1
    30    30    21   am
    31     6     1    1
    32    29    24   ar
    33    16     7    1
    34    16    11    1
@<TRIPOS>MOLECULE
*****
 30 34 0 0 0
SMALL
GASTEIGER

@<TRIPOS>ATOM
      1 N         141.8652  139.8352  162.6604 N.3     1  UNL1       -0.2725
      2 C         140.9252  140.9118  163.1156 C.3     1  UNL1        0.0738
      3 C         140.4120  140.9128  164.5251 C.3     1  UNL1        0.0376
      4 C         140.8388  139.8371  165.4794 C.3     1  UNL1        0.0841
      5 C         141.7789  138.7605  165.0242 C.3     1  UNL1        0.0376
      6 C         142.2921  138.7595  163.6147 C.3     1  UNL1        0.0738
      7 N         140.3257  139.8380  166.8889 N.am    1  UNL1       -0.2423
      8 C         138.9365  139.4734  167.3216 C.2     1  UNL1        0.3309
      9 O         137.8166  139.0439  166.4209 O.2     1  UNL1       -0.2501
     10 N         138.8638  139.6137  168.8132 N.am    1  UNL1       -0.1647
     11 C         140.2081  140.0651  169.3024 C.2     1  UNL1        0.0706
     12 C         140.7261  140.3678  170.6772 C.3     1  UNL1        0.0705
     13 C         142.1477  140.8091  170.8627 C.2     1  UNL1       -0.0199
     14 C         143.0512  140.9477  169.6732 C.2     1  UNL1       -0.0029
     15 C         142.5331  140.6450  168.2985 C.2     1  UNL1        0.0156
     16 C         141.1115  140.2037  168.1131 C.2     1  UNL1        0.0668
     17 C         142.3784  139.8343  161.2510 C.3     1  UNL1        0.0739
     18 C         143.8043  140.2069  160.9717 C.3     1  UNL1        0.0392
     19 C         144.2147  141.6497  160.9637 C.3     1  UNL1        0.0996
     20 O         146.0456  141.2625  163.3085 O.2     1  UNL1       -0.2745
     21 C         144.9564  142.2921  163.3693 C.2     1  UNL1        0.2297
     22 C         144.7826  143.1282  164.6026 C.3     1  UNL1        0.0903
     23 C         143.6935  144.1577  164.6634 C.3     1  UNL1        0.0372
     24 C         142.7781  144.3513  163.4910 C.ar    1  UNL1       -0.0080
     25 C         141.6889  145.3809  163.5518 C.ar    1  UNL1       -0.0030
     26 C         140.7735  145.5744  162.3794 C.ar    1  UNL1       -0.0002
     27 C         140.9473  144.7384  161.1462 C.ar    1  UNL1        0.0013
     28 C         142.0364  143.7088  161.0853 C.ar    1  UNL1        0.0146
     29 C         142.9518  143.5153  162.2577 C.ar    1  UNL1        0.0498
     30 N         144.0410  142.4857  162.1969 N.am    1  UNL1       -0.2589
@<TRIPOS>BOND
     1    20    21    2
     2    21    22    1
     3    22    23    1
     4    23    24    1
     5    24    25   ar
     6    25    26   ar
     7    26    27   ar
     8    27    28   ar
     9    28    29   ar
    10    29    30    1
    11    30    19    1
    12    19    18    1
    13    18    17    1
    14    17     1    1
    15     1     2    1
    16     2     3    1
    17     3     4    1
    18     4     7    1
    19     7     8   am
    20     8     9    2
    21     8    10    1
    22    10    11    2
    23    11    12    1
    24    12    13    1
    25    13    14    2
    26    14    15    1
    27    15    16    2
    28     4     5    1
    29     5     6    1
    30    30    21   am
    31     6     1    1
    32    29    24   ar
    33    16     7    1
    34    16    11    1
@<TRIPOS>MOLECULE
*****
 30 34 0 0 0
SMALL
GASTEIGER

@<TRIPOS>ATOM
      1 N         139.2172  138.5220  162.2692 N.3     1  UNL1       -0.2725
      2 C         138.3296  139.6315  162.7498 C.3     1  UNL1        0.0738
      3 C         138.2576  139.9541  164.2130 C.3     1  UNL1        0.0376
      4 C         139.0733  139.1671  165.1955 C.3     1  UNL1        0.0841
      5 C         139.9610  138.0575  164.7148 C.3     1  UNL1        0.0376
      6 C         140.0329  137.7350  163.2516 C.3     1  UNL1        0.0738
      7 N         139.0014  139.4896  166.6586 N.am    1  UNL1       -0.2423
      8 C         138.0339  138.9041  167.6439 C.2     1  UNL1        0.3309
      9 O         136.9684  137.8933  167.3392 O.2     1  UNL1       -0.2501
     10 N         138.3189  139.5069  168.9876 N.am    1  UNL1       -0.1647
     11 C         139.4626  140.4650  168.8327 C.2     1  UNL1        0.0706
     12 C         140.1744  141.3457  169.8163 C.3     1  UNL1        0.0705
     13 C         141.3081  142.2158  169.3606 C.2     1  UNL1       -0.0199
     14 C         141.7300  142.2051  167.9211 C.2     1  UNL1       -0.0029
     15 C         141.0181  141.3244  166.9374 C.2     1  UNL1        0.0156
     16 C         139.8844  140.4543  167.3932 C.2     1  UNL1        0.0668
     17 C         139.2891  138.1994  160.8060 C.3     1  UNL1        0.0739
     18 C         139.5558  139.2889  159.8101 C.3     1  UNL1        0.0392
     19 C         140.9506  139.8076  159.6214 C.3     1  UNL1        0.0996
     20 O         142.7494  137.4071  159.5713 O.2     1  UNL1       -0.2745
     21 C         142.8741  138.4149  160.6754 C.2     1  UNL1        0.2297
     22 C         143.8982  138.2225  161.7544 C.3     1  UNL1        0.0903
     23 C         144.0229  139.2302  162.8584 C.3     1  UNL1        0.0372
     24 C         143.1235  140.4305  162.8834 C.ar    1  UNL1       -0.0080
     25 C         143.2482  141.4382  163.9874 C.ar    1  UNL1       -0.0030
     26 C         142.3489  142.6384  164.0125 C.ar    1  UNL1       -0.0002
     27 C         141.3248  142.8308  162.9335 C.ar    1  UNL1        0.0013
     28 C         141.2001  141.8231  161.8295 C.ar    1  UNL1        0.0146
     29 C         142.0994  140.6229  161.8044 C.ar    1  UNL1        0.0498
     30 N         141.9747  139.6151  160.7004 N.am    1  UNL1       -0.2589
@<TRIPOS>BOND
     1    20    21    2
     2    21    22    1
     3    22    23    1
     4    23    24    1
     5    24    25   ar
     6    25    26   ar
     7    26    27   ar
     8    27    28   ar
     9    28    29   ar
    10    29    30    1
    11    30    19    1
    12    19    18    1
    13    18    17    1
    14    17     1    1
    15     1     2    1
    16     2     3    1
    17     3     4    1
    18     4     7    1
    19     7     8   am
    20     8     9    2
    21     8    10    1
    22    10    11    2
    23    11    12    1
    24    12    13    1
    25    13    14    2
    26    14    15    1
    27    15    16    2
    28     4     5    1
    29     5     6    1
    30    30    21   am
    31     6     1    1
    32    29    24   ar
    33    16     7    1
    34    16    11    1
@<TRIPOS>MOLECULE
*****
 30 34 0 0 0
SMALL
GASTEIGER

@<TRIPOS>ATOM
      1 N         140.0188  142.4569  162.3816 N.3     1  UNL1       -0.2725
      2 C         140.3576  141.0166  162.6282 C.3     1  UNL1        0.0738
      3 C         140.4330  140.4935  164.0320 C.3     1  UNL1        0.0376
      4 C         140.1695  141.4107  165.1893 C.3     1  UNL1        0.0841
      5 C         139.8306  142.8510  164.9427 C.3     1  UNL1        0.0376
      6 C         139.7553  143.3741  163.5389 C.3     1  UNL1        0.0738
      7 N         140.2448  140.8877  166.5931 N.am    1  UNL1       -0.2423
      8 C         139.2851  139.9256  167.2282 C.2     1  UNL1        0.3309
      9 O         138.0816  139.3176  166.5710 O.2     1  UNL1       -0.2501
     10 N         139.7402  139.6781  168.6359 N.am    1  UNL1       -0.1647
     11 C         140.9812  140.4874  168.8708 C.2     1  UNL1        0.0706
     12 C         141.8675  140.6401  170.0713 C.3     1  UNL1        0.0705
     13 C         143.0657  141.5404  170.0093 C.2     1  UNL1       -0.0199
     14 C         143.3776  142.2879  168.7467 C.2     1  UNL1       -0.0029
     15 C         142.4912  142.1352  167.5462 C.2     1  UNL1        0.0156
     16 C         141.2930  141.2349  167.6083 C.2     1  UNL1        0.0668
     17 C         139.9435  142.9799  160.9778 C.3     1  UNL1        0.0739
     18 C         140.8324  144.1097  160.5497 C.3     1  UNL1        0.0392
     19 C         142.2803  143.8537  160.2528 C.3     1  UNL1        0.0996
     20 O         142.7990  141.1276  159.1128 O.2     1  UNL1       -0.2745
     21 C         143.3012  141.4757  160.4828 C.2     1  UNL1        0.2297
     22 C         144.0627  140.4607  161.2827 C.3     1  UNL1        0.0903
     23 C         144.5649  140.8087  162.6526 C.3     1  UNL1        0.0372
     24 C         144.3056  142.1718  163.2226 C.ar    1  UNL1       -0.0080
     25 C         144.8078  142.5198  164.5925 C.ar    1  UNL1       -0.0030
     26 C         144.5484  143.8828  165.1625 C.ar    1  UNL1       -0.0002
     27 C         143.7869  144.8978  164.3625 C.ar    1  UNL1        0.0013
     28 C         143.2847  144.5498  162.9926 C.ar    1  UNL1        0.0146
     29 C         143.5441  143.1868  162.4227 C.ar    1  UNL1        0.0498
     30 N         143.0419  142.8387  161.0527 N.am    1  UNL1       -0.2589
@<TRIPOS>BOND
     1    20    21    2
     2    21    22    1
     3    22    23    1
     4    23    24    1
     5    24    25   ar
     6    25    26   ar
     7    26    27   ar
     8    27    28   ar
     9    28    29   ar
    10    29    30    1
    11    30    19    1
    12    19    18    1
    13    18    17    1
    14    17     1    1
    15     1     2    1
    16     2     3    1
    17     3     4    1
    18     4     7    1
    19     7     8   am
    20     8     9    2
    21     8    10    1
    22    10    11    2
    23    11    12    1
    24    12    13    1
    25    13    14    2
    26    14    15    1
    27    15    16    2
    28     4     5    1
    29     5     6    1
    30    30    21   am
    31     6     1    1
    32    29    24   ar
    33    16     7    1
    34    16    11    1
@<TRIPOS>MOLECULE
*****
 30 34 0 0 0
SMALL
GASTEIGER

@<TRIPOS>ATOM
      1 N         140.5149  140.0944  162.3079 N.3     1  UNL1       -0.2725
      2 C         139.5037  140.0678  163.4155 C.3     1  UNL1        0.0738
      3 C         139.9558  140.1133  164.8450 C.3     1  UNL1        0.0376
      4 C         141.4191  140.1854  165.1669 C.3     1  UNL1        0.0841
      5 C         142.4303  140.2121  164.0593 C.3     1  UNL1        0.0376
      6 C         141.9781  140.1666  162.6298 C.3     1  UNL1        0.0738
      7 N         141.8712  140.2309  166.5964 N.am    1  UNL1       -0.2423
      8 C         142.7953  139.2536  167.2604 C.2     1  UNL1        0.3309
      9 O         143.4296  138.0593  166.6114 O.2     1  UNL1       -0.2501
     10 N         142.9739  139.6804  168.6872 N.am    1  UNL1       -0.1647
     11 C         142.1600  140.9215  168.9052 C.2     1  UNL1        0.0706
     12 C         141.9515  141.7856  170.1134 C.3     1  UNL1        0.0705
     13 C         141.0614  142.9901  170.0294 C.2     1  UNL1       -0.0199
     14 C         140.3799  143.3303  168.7371 C.2     1  UNL1       -0.0029
     15 C         140.5884  142.4661  167.5289 C.2     1  UNL1        0.0156
     16 C         141.4785  141.2617  167.6130 C.2     1  UNL1        0.0668
     17 C         140.0628  140.0490  160.8784 C.3     1  UNL1        0.0739
     18 C         139.3884  141.2411  160.2667 C.3     1  UNL1        0.0392
     19 C         140.0156  142.5988  160.3822 C.3     1  UNL1        0.0996
     20 O         137.4628  143.1377  161.8629 O.2     1  UNL1       -0.2745
     21 C         138.7749  143.5675  162.4491 C.2     1  UNL1        0.2297
     22 C         138.8106  144.2668  163.7756 C.3     1  UNL1        0.0903
     23 C         140.1226  144.6967  164.3618 C.3     1  UNL1        0.0372
     24 C         141.3991  144.4273  163.6215 C.ar    1  UNL1       -0.0080
     25 C         142.7112  144.8571  164.2076 C.ar    1  UNL1       -0.0030
     26 C         143.9876  144.5877  163.4673 C.ar    1  UNL1       -0.0002
     27 C         143.9519  143.8884  162.1407 C.ar    1  UNL1        0.0013
     28 C         142.6399  143.4585  161.5546 C.ar    1  UNL1        0.0146
     29 C         141.3635  143.7280  162.2949 C.ar    1  UNL1        0.0498
     30 N         140.0513  143.2981  161.7087 N.am    1  UNL1       -0.2589
@<TRIPOS>BOND
     1    20    21    2
     2    21    22    1
     3    22    23    1
     4    23    24    1
     5    24    25   ar
     6    25    26   ar
     7    26    27   ar
     8    27    28   ar
     9    28    29   ar
    10    29    30    1
    11    30    19    1
    12    19    18    1
    13    18    17    1
    14    17     1    1
    15     1     2    1
    16     2     3    1
    17     3     4    1
    18     4     7    1
    19     7     8   am
    20     8     9    2
    21     8    10    1
    22    10    11    2
    23    11    12    1
    24    12    13    1
    25    13    14    2
    26    14    15    1
    27    15    16    2
    28     4     5    1
    29     5     6    1
    30    30    21   am
    31     6     1    1
    32    29    24   ar
    33    16     7    1
    34    16    11    1
