@<TRIPOS>MOLECULE
*****
 30 33 0 0 0
SMALL
GASTEIGER

@<TRIPOS>ATOM
      1 C         139.6982  138.3556  162.5735 C.ar    1  UNL1        0.0853
      2 C         140.9818  137.5807  162.6165 C.ar    1  UNL1        0.1045
      3 N         141.8900  137.6992  163.8045 N.ar    1  UNL1       -0.2436
      4 C         141.5144  138.5924  164.9495 C.ar    1  UNL1        0.0833
      5 C         142.4225  138.7109  166.1374 C.ar    1  UNL1        0.0305
      6 C         142.0470  139.6041  167.2824 C.ar    1  UNL1        0.0592
      7 CL        142.9551  139.7225  168.4704 Cl      1  UNL1       -0.0822
      8 C         140.7633  140.3790  167.2394 C.ar    1  UNL1        0.0122
      9 C         139.8552  140.2606  166.0514 C.ar    1  UNL1        0.0036
     10 C         140.2308  139.3673  164.9064 C.ar    1  UNL1        0.0310
     11 C         139.3227  139.2488  163.7184 C.ar    1  UNL1        0.0519
     12 C         140.3878  141.2723  168.3844 C.ar    1  UNL1        0.0200
     13 C         140.8528  142.6983  168.4070 C.ar    1  UNL1        0.0032
     14 C         140.4773  143.5915  169.5520 C.ar    1  UNL1        0.0207
     15 C         139.6368  143.0589  170.6744 C.ar    1  UNL1        0.0989
     16 N         139.1718  141.6330  170.6519 N.ar    1  UNL1       -0.2423
     17 C         139.5473  140.7396  169.5068 C.ar    1  UNL1        0.0989
     18 N         139.3545  138.3236  159.9984 N.am    1  UNL1       -0.3252
     19 C         138.7901  138.2371  161.3855 C.2     1  UNL1        0.2455
     20 O         137.3176  138.0322  161.5845 O.2     1  UNL1       -0.2703
     21 H         138.7585  138.2459  159.2187 H       1  UNL1        0.1453
     22 H         140.3210  138.4581  159.8678 H       1  UNL1        0.1453
     23 N         138.0390  140.0237  163.6755 N.pl3   1  UNL1       -0.3337
     24 H         137.2016  139.6063  163.9816 H       1  UNL1        0.1468
     25 C         138.0313  141.4345  163.1660 C.3     1  UNL1        0.0740
     26 C         138.3099  141.7106  161.7182 C.3     1  UNL1        0.0516
     27 C         138.3021  143.1214  161.2087 C.3     1  UNL1        0.1439
     28 O         138.0158  144.2561  162.1471 O.3     1  UNL1       -0.3537
     29 C         137.7373  143.9800  163.5949 C.3     1  UNL1        0.1439
     30 C         137.7450  142.5692  164.1044 C.3     1  UNL1        0.0516
@<TRIPOS>BOND
     1    18    19   am
     2    19    20    2
     3    19     1    1
     4     1     2   ar
     5     2     3   ar
     6     3     4   ar
     7     4     5   ar
     8     5     6   ar
     9     6     7    1
    10     6     8   ar
    11     8    12    1
    12    12    13   ar
    13    13    14   ar
    14    14    15   ar
    15    15    16   ar
    16    16    17   ar
    17     8     9   ar
    18     9    10   ar
    19    10    11   ar
    20    11    23    1
    21    23    25    1
    22    25    26    1
    23    26    27    1
    24    27    28    1
    25    28    29    1
    26    29    30    1
    27    11     1   ar
    28    30    25    1
    29    10     4   ar
    30    17    12   ar
    31    18    21    1
    32    18    22    1
    33    23    24    1
@<TRIPOS>MOLECULE
*****
 30 33 0 0 0
SMALL
GASTEIGER

@<TRIPOS>ATOM
      1 C         139.2049  143.8040  162.2138 C.ar    1  UNL1        0.0853
      2 C         138.0338  143.0101  161.7155 C.ar    1  UNL1        0.1045
      3 N         137.5556  141.8150  162.4855 N.ar    1  UNL1       -0.2436
      4 C         138.2485  141.4137  163.7539 C.ar    1  UNL1        0.0833
      5 C         137.7703  140.2185  164.5239 C.ar    1  UNL1        0.0305
      6 C         138.4632  139.8172  165.7923 C.ar    1  UNL1        0.0592
      7 CL        137.9850  138.6221  166.5624 Cl      1  UNL1       -0.0822
      8 C         139.6343  140.6111  166.2907 C.ar    1  UNL1        0.0122
      9 C         140.1125  141.8062  165.5207 C.ar    1  UNL1        0.0036
     10 C         139.4195  142.2075  164.2522 C.ar    1  UNL1        0.0310
     11 C         139.8977  143.4027  163.4822 C.ar    1  UNL1        0.0519
     12 C         140.3272  140.2098  167.5591 C.ar    1  UNL1        0.0200
     13 C         141.7732  139.8119  167.5303 C.ar    1  UNL1        0.0032
     14 C         142.4660  139.4106  168.7987 C.ar    1  UNL1        0.0207
     15 C         141.7130  139.4072  170.0959 C.ar    1  UNL1        0.0989
     16 N         140.2670  139.8051  170.1248 N.ar    1  UNL1       -0.2423
     17 C         139.5741  140.2064  168.8564 C.ar    1  UNL1        0.0989
     18 N         139.8509  144.9144  159.9556 N.am    1  UNL1       -0.3252
     19 C         139.6830  144.9991  161.4438 C.2     1  UNL1        0.2455
     20 O         139.9934  146.2789  162.1619 O.2     1  UNL1       -0.2703
     21 H         140.1647  145.6989  159.4502 H       1  UNL1        0.1453
     22 H         139.6472  144.0744  159.4843 H       1  UNL1        0.1453
     23 N         141.0688  144.1965  163.9806 N.pl3   1  UNL1       -0.3337
     24 H         140.9205  145.0297  164.4837 H       1  UNL1        0.1468
     25 C         142.4659  143.7210  163.7125 C.3     1  UNL1        0.0740
     26 C         143.3056  143.1888  164.8358 C.3     1  UNL1        0.0516
     27 C         144.7027  142.7132  164.5677 C.3     1  UNL1        0.1439
     28 O         145.2602  142.7699  163.1764 O.3     1  UNL1       -0.3537
     29 C         144.4207  143.3021  162.0531 C.3     1  UNL1        0.1439
     30 C         143.0235  143.7777  162.3211 C.3     1  UNL1        0.0516
@<TRIPOS>BOND
     1    18    19   am
     2    19    20    2
     3    19     1    1
     4     1     2   ar
     5     2     3   ar
     6     3     4   ar
     7     4     5   ar
     8     5     6   ar
     9     6     7    1
    10     6     8   ar
    11     8    12    1
    12    12    13   ar
    13    13    14   ar
    14    14    15   ar
    15    15    16   ar
    16    16    17   ar
    17     8     9   ar
    18     9    10   ar
    19    10    11   ar
    20    11    23    1
    21    23    25    1
    22    25    26    1
    23    26    27    1
    24    27    28    1
    25    28    29    1
    26    29    30    1
    27    11     1   ar
    28    30    25    1
    29    10     4   ar
    30    17    12   ar
    31    18    21    1
    32    18    22    1
    33    23    24    1
@<TRIPOS>MOLECULE
*****
 30 33 0 0 0
SMALL
GASTEIGER

@<TRIPOS>ATOM
      1 C         142.3590  138.6219  162.4015 C.ar    1  UNL1        0.0853
      2 C         141.2662  137.6264  162.1473 C.ar    1  UNL1        0.1045
      3 N         140.1330  137.4917  163.1209 N.ar    1  UNL1       -0.2436
      4 C         140.0927  138.3526  164.3486 C.ar    1  UNL1        0.0833
      5 C         138.9595  138.2179  165.3221 C.ar    1  UNL1        0.0305
      6 C         138.9192  139.0787  166.5498 C.ar    1  UNL1        0.0592
      7 CL        137.7860  138.9441  167.5234 Cl      1  UNL1       -0.0822
      8 C         140.0120  140.0743  166.8040 C.ar    1  UNL1        0.0122
      9 C         141.1452  140.2090  165.8305 C.ar    1  UNL1        0.0036
     10 C         141.1855  139.3481  164.6027 C.ar    1  UNL1        0.0310
     11 C         142.3186  139.4828  163.6292 C.ar    1  UNL1        0.0519
     12 C         139.9717  140.9352  168.0317 C.ar    1  UNL1        0.0200
     13 C         140.3804  142.3762  167.9511 C.ar    1  UNL1        0.0032
     14 C         140.3400  143.2371  169.1788 C.ar    1  UNL1        0.0207
     15 C         139.8911  142.6569  170.4872 C.ar    1  UNL1        0.0989
     16 N         139.4824  141.2160  170.5678 N.ar    1  UNL1       -0.2423
     17 C         139.5227  140.3550  169.3401 C.ar    1  UNL1        0.0989
     18 N         144.5502  137.6958  161.3571 N.am    1  UNL1       -0.3252
     19 C         143.4921  138.7566  161.4279 C.2     1  UNL1        0.2455
     20 O         143.5673  139.9522  160.5252 O.2     1  UNL1       -0.2703
     21 H         145.2939  137.7842  160.7181 H       1  UNL1        0.1453
     22 H         144.5009  136.9111  161.9496 H       1  UNL1        0.1453
     23 N         143.4115  140.4784  163.8834 N.pl3   1  UNL1       -0.3337
     24 H         144.1804  140.2322  164.4468 H       1  UNL1        0.1468
     25 C         143.3329  141.8490  163.2791 C.3     1  UNL1        0.0740
     26 C         142.0079  142.4025  162.8451 C.3     1  UNL1        0.0516
     27 C         141.9293  143.7731  162.2409 C.3     1  UNL1        0.1439
     28 O         143.1755  144.5903  162.0706 O.3     1  UNL1       -0.3537
     29 C         144.5004  144.0369  162.5045 C.3     1  UNL1        0.1439
     30 C         144.5791  142.6662  163.1088 C.3     1  UNL1        0.0516
@<TRIPOS>BOND
     1    18    19   am
     2    19    20    2
     3    19     1    1
     4     1     2   ar
     5     2     3   ar
     6     3     4   ar
     7     4     5   ar
     8     5     6   ar
     9     6     7    1
    10     6     8   ar
    11     8    12    1
    12    12    13   ar
    13    13    14   ar
    14    14    15   ar
    15    15    16   ar
    16    16    17   ar
    17     8     9   ar
    18     9    10   ar
    19    10    11   ar
    20    11    23    1
    21    23    25    1
    22    25    26    1
    23    26    27    1
    24    27    28    1
    25    28    29    1
    26    29    30    1
    27    11     1   ar
    28    30    25    1
    29    10     4   ar
    30    17    12   ar
    31    18    21    1
    32    18    22    1
    33    23    24    1
@<TRIPOS>MOLECULE
*****
 30 33 0 0 0
SMALL
GASTEIGER

@<TRIPOS>ATOM
      1 C         140.3447  142.1360  169.1339 C.ar    1  UNL1        0.0853
      2 C         139.5054  141.2577  170.0138 C.ar    1  UNL1        0.1045
      3 N         138.8217  140.0532  169.4379 N.ar    1  UNL1       -0.2436
      4 C         138.9771  139.7270  167.9821 C.ar    1  UNL1        0.0833
      5 C         138.2934  138.5225  167.4062 C.ar    1  UNL1        0.0305
      6 C         138.4489  138.1963  165.9504 C.ar    1  UNL1        0.0592
      7 CL        137.7651  136.9918  165.3745 Cl      1  UNL1       -0.0822
      8 C         139.2881  139.0746  165.0704 C.ar    1  UNL1        0.0122
      9 C         139.9719  140.2791  165.6463 C.ar    1  UNL1        0.0036
     10 C         139.8164  140.6053  167.1022 C.ar    1  UNL1        0.0310
     11 C         140.5001  141.8098  167.6781 C.ar    1  UNL1        0.0519
     12 C         139.4436  138.7484  163.6146 C.ar    1  UNL1        0.0200
     13 C         138.4212  139.2250  162.6259 C.ar    1  UNL1        0.0032
     14 C         138.5766  138.8988  161.1701 C.ar    1  UNL1        0.0207
     15 C         139.7545  138.0960  160.7030 C.ar    1  UNL1        0.0989
     16 N         140.7769  137.6195  161.6916 N.ar    1  UNL1       -0.2423
     17 C         140.6215  137.9457  163.1475 C.ar    1  UNL1        0.0989
     18 N         140.2191  144.5265  170.1436 N.am    1  UNL1       -0.3252
     19 C         141.0284  143.3405  169.7098 C.2     1  UNL1        0.2455
     20 O         142.5215  143.3589  169.8519 O.2     1  UNL1       -0.2703
     21 H         140.6679  145.3171  170.5216 H       1  UNL1        0.1453
     22 H         139.2391  144.5144  170.0504 H       1  UNL1        0.1453
     23 N         141.3394  142.6881  166.7981 N.pl3   1  UNL1       -0.3337
     24 H         142.3031  142.7850  166.9748 H       1  UNL1        0.1468
     25 C         140.7104  143.4188  165.6490 C.3     1  UNL1        0.0740
     26 C         139.3395  144.0097  165.7961 C.3     1  UNL1        0.0516
     27 C         138.7106  144.7403  164.6470 C.3     1  UNL1        0.1439
     28 O         139.4524  144.8801  163.3508 O.3     1  UNL1       -0.3537
     29 C         140.8232  144.2892  163.2037 C.3     1  UNL1        0.1439
     30 C         141.4523  143.5585  164.3528 C.3     1  UNL1        0.0516
@<TRIPOS>BOND
     1    18    19   am
     2    19    20    2
     3    19     1    1
     4     1     2   ar
     5     2     3   ar
     6     3     4   ar
     7     4     5   ar
     8     5     6   ar
     9     6     7    1
    10     6     8   ar
    11     8    12    1
    12    12    13   ar
    13    13    14   ar
    14    14    15   ar
    15    15    16   ar
    16    16    17   ar
    17     8     9   ar
    18     9    10   ar
    19    10    11   ar
    20    11    23    1
    21    23    25    1
    22    25    26    1
    23    26    27    1
    24    27    28    1
    25    28    29    1
    26    29    30    1
    27    11     1   ar
    28    30    25    1
    29    10     4   ar
    30    17    12   ar
    31    18    21    1
    32    18    22    1
    33    23    24    1
@<TRIPOS>MOLECULE
*****
 30 33 0 0 0
SMALL
GASTEIGER

@<TRIPOS>ATOM
      1 C         140.2487  140.7187  167.4094 C.ar    1  UNL1        0.0853
      2 C         141.5927  141.0084  168.0091 C.ar    1  UNL1        0.1045
      3 N         142.5834  141.8484  167.2588 N.ar    1  UNL1       -0.2436
      4 C         142.2302  142.3986  165.9089 C.ar    1  UNL1        0.0833
      5 C         143.2210  143.2385  165.1586 C.ar    1  UNL1        0.0305
      6 C         142.8678  143.7887  163.8086 C.ar    1  UNL1        0.0592
      7 CL        143.8586  144.6286  163.0584 Cl      1  UNL1       -0.0822
      8 C         141.5238  143.4990  163.2088 C.ar    1  UNL1        0.0122
      9 C         140.5330  142.6590  163.9591 C.ar    1  UNL1        0.0036
     10 C         140.8863  142.1088  165.3091 C.ar    1  UNL1        0.0310
     11 C         139.8955  141.2689  166.0594 C.ar    1  UNL1        0.0519
     12 C         141.1706  144.0491  161.8589 C.ar    1  UNL1        0.0200
     13 C         141.7317  143.4154  160.6204 C.ar    1  UNL1        0.0032
     14 C         141.3785  143.9656  159.2704 C.ar    1  UNL1        0.0207
     15 C         140.4642  145.1495  159.1588 C.ar    1  UNL1        0.0989
     16 N         139.9031  145.7832  160.3971 N.ar    1  UNL1       -0.2423
     17 C         140.2563  145.2331  161.7472 C.ar    1  UNL1        0.0989
     18 N         139.0967  140.0525  169.6407 N.am    1  UNL1       -0.3252
     19 C         139.2579  139.8788  168.1596 C.2     1  UNL1        0.2455
     20 O         138.4283  138.8652  167.4287 O.2     1  UNL1       -0.2703
     21 H         138.4464  139.5012  170.1331 H       1  UNL1        0.1453
     22 H         139.6412  140.7177  170.1205 H       1  UNL1        0.1453
     23 N         138.5514  140.9792  165.4596 N.pl3   1  UNL1       -0.3337
     24 H         137.7405  141.3726  165.8556 H       1  UNL1        0.1468
     25 C         138.4430  140.0901  164.2564 C.3     1  UNL1        0.0740
     26 C         137.7401  140.5779  163.0242 C.3     1  UNL1        0.0516
     27 C         137.6317  139.6889  161.8210 C.3     1  UNL1        0.1439
     28 O         138.2261  138.3120  161.8498 O.3     1  UNL1       -0.3537
     29 C         138.9289  137.8241  163.0819 C.3     1  UNL1        0.1439
     30 C         139.0374  138.7132  164.2852 C.3     1  UNL1        0.0516
@<TRIPOS>BOND
     1    18    19   am
     2    19    20    2
     3    19     1    1
     4     1     2   ar
     5     2     3   ar
     6     3     4   ar
     7     4     5   ar
     8     5     6   ar
     9     6     7    1
    10     6     8   ar
    11     8    12    1
    12    12    13   ar
    13    13    14   ar
    14    14    15   ar
    15    15    16   ar
    16    16    17   ar
    17     8     9   ar
    18     9    10   ar
    19    10    11   ar
    20    11    23    1
    21    23    25    1
    22    25    26    1
    23    26    27    1
    24    27    28    1
    25    28    29    1
    26    29    30    1
    27    11     1   ar
    28    30    25    1
    29    10     4   ar
    30    17    12   ar
    31    18    21    1
    32    18    22    1
    33    23    24    1
@<TRIPOS>MOLECULE
*****
 30 33 0 0 0
SMALL
GASTEIGER

@<TRIPOS>ATOM
      1 C         143.3442  142.2554  161.8544 C.ar    1  UNL1        0.0853
      2 C         144.3206  141.1697  161.5113 C.ar    1  UNL1        0.1045
      3 N         144.5997  140.0733  162.4962 N.ar    1  UNL1       -0.2436
      4 C         143.9024  140.0626  163.8242 C.ar    1  UNL1        0.0833
      5 C         144.1815  138.9662  164.8091 C.ar    1  UNL1        0.0305
      6 C         143.4842  138.9555  166.1370 C.ar    1  UNL1        0.0592
      7 CL        143.7633  137.8591  167.1219 Cl      1  UNL1       -0.0822
      8 C         142.5076  140.0413  166.4802 C.ar    1  UNL1        0.0122
      9 C         142.2285  141.1377  165.4953 C.ar    1  UNL1        0.0036
     10 C         142.9259  141.1483  164.1672 C.ar    1  UNL1        0.0310
     11 C         142.6468  142.2447  163.1823 C.ar    1  UNL1        0.0519
     12 C         141.8103  140.0306  167.8081 C.ar    1  UNL1        0.0200
     13 C         142.6005  140.2020  169.0716 C.ar    1  UNL1        0.0032
     14 C         141.9031  140.1913  170.3996 C.ar    1  UNL1        0.0207
     15 C         140.4156  140.0092  170.4642 C.ar    1  UNL1        0.0989
     16 N         139.6255  139.8378  169.2008 N.ar    1  UNL1       -0.2423
     17 C         140.3228  139.8484  167.8727 C.ar    1  UNL1        0.0989
     18 N         143.0961  143.0637  159.3977 N.am    1  UNL1       -0.3252
     19 C         143.0651  143.3518  160.8695 C.2     1  UNL1        0.2455
     20 O         142.7549  144.7362  161.3563 O.2     1  UNL1       -0.2703
     21 H         142.9129  143.7833  158.7513 H       1  UNL1        0.1453
     22 H         143.2997  142.1551  159.0782 H       1  UNL1        0.1453
     23 N         141.6703  143.3304  163.5255 N.pl3   1  UNL1       -0.3337
     24 H         141.9826  144.1501  163.9726 H       1  UNL1        0.1468
     25 C         140.2181  143.1673  163.1873 C.3     1  UNL1        0.0740
     26 C         139.2374  144.2415  163.5540 C.3     1  UNL1        0.0516
     27 C         137.7851  144.0784  163.2159 C.3     1  UNL1        0.1439
     28 O         137.3135  142.8412  162.5111 O.3     1  UNL1       -0.3537
     29 C         138.2941  141.7670  162.1444 C.3     1  UNL1        0.1439
     30 C         139.7465  141.9301  162.4825 C.3     1  UNL1        0.0516
@<TRIPOS>BOND
     1    18    19   am
     2    19    20    2
     3    19     1    1
     4     1     2   ar
     5     2     3   ar
     6     3     4   ar
     7     4     5   ar
     8     5     6   ar
     9     6     7    1
    10     6     8   ar
    11     8    12    1
    12    12    13   ar
    13    13    14   ar
    14    14    15   ar
    15    15    16   ar
    16    16    17   ar
    17     8     9   ar
    18     9    10   ar
    19    10    11   ar
    20    11    23    1
    21    23    25    1
    22    25    26    1
    23    26    27    1
    24    27    28    1
    25    28    29    1
    26    29    30    1
    27    11     1   ar
    28    30    25    1
    29    10     4   ar
    30    17    12   ar
    31    18    21    1
    32    18    22    1
    33    23    24    1
@<TRIPOS>MOLECULE
*****
 30 33 0 0 0
SMALL
GASTEIGER

@<TRIPOS>ATOM
      1 C         141.5251  140.5326  167.9458 C.ar    1  UNL1        0.0853
      2 C         140.2034  139.8578  168.1639 C.ar    1  UNL1        0.1045
      3 N         139.0859  140.0631  167.1847 N.ar    1  UNL1       -0.2436
      4 C         139.2900  140.9433  165.9874 C.ar    1  UNL1        0.0833
      5 C         138.1724  141.1486  165.0082 C.ar    1  UNL1        0.0305
      6 C         138.3766  142.0288  163.8109 C.ar    1  UNL1        0.0592
      7 CL        137.2590  142.2341  162.8316 Cl      1  UNL1       -0.0822
      8 C         139.6983  142.7037  163.5927 C.ar    1  UNL1        0.0122
      9 C         140.8159  142.4984  164.5720 C.ar    1  UNL1        0.0036
     10 C         140.6117  141.6181  165.7693 C.ar    1  UNL1        0.0310
     11 C         141.7293  141.4128  166.7485 C.ar    1  UNL1        0.0519
     12 C         139.9025  143.5839  162.3954 C.ar    1  UNL1        0.0200
     13 C         140.5453  143.0302  161.1583 C.ar    1  UNL1        0.0032
     14 C         140.7494  143.9103  159.9610 C.ar    1  UNL1        0.0207
     15 C         140.3108  145.3442  160.0007 C.ar    1  UNL1        0.0989
     16 N         139.6680  145.8979  161.2377 N.ar    1  UNL1       -0.2423
     17 C         139.4639  145.0177  162.4351 C.ar    1  UNL1        0.0989
     18 N         142.9876  138.9436  169.3902 N.am    1  UNL1       -0.3252
     19 C         142.6427  140.3273  168.9251 C.2     1  UNL1        0.2455
     20 O         143.4154  141.5057  169.4391 O.2     1  UNL1       -0.2703
     21 H         143.7211  138.8089  170.0329 H       1  UNL1        0.1453
     22 H         142.4804  138.1702  169.0529 H       1  UNL1        0.1453
     23 N         143.0511  142.0877  166.5304 N.pl3   1  UNL1       -0.3337
     24 H         143.3691  142.7656  167.1697 H       1  UNL1        0.1468
     25 C         143.8882  141.7299  165.3384 C.3     1  UNL1        0.0740
     26 C         144.0315  140.2947  164.9261 C.3     1  UNL1        0.0516
     27 C         144.8687  139.9369  163.7340 C.3     1  UNL1        0.1439
     28 O         145.5626  141.0141  162.9542 O.3     1  UNL1       -0.3537
     29 C         145.4193  142.4492  163.3664 C.3     1  UNL1        0.1439
     30 C         144.5821  142.8071  164.5585 C.3     1  UNL1        0.0516
@<TRIPOS>BOND
     1    18    19   am
     2    19    20    2
     3    19     1    1
     4     1     2   ar
     5     2     3   ar
     6     3     4   ar
     7     4     5   ar
     8     5     6   ar
     9     6     7    1
    10     6     8   ar
    11     8    12    1
    12    12    13   ar
    13    13    14   ar
    14    14    15   ar
    15    15    16   ar
    16    16    17   ar
    17     8     9   ar
    18     9    10   ar
    19    10    11   ar
    20    11    23    1
    21    23    25    1
    22    25    26    1
    23    26    27    1
    24    27    28    1
    25    28    29    1
    26    29    30    1
    27    11     1   ar
    28    30    25    1
    29    10     4   ar
    30    17    12   ar
    31    18    21    1
    32    18    22    1
    33    23    24    1
@<TRIPOS>MOLECULE
*****
 30 33 0 0 0
SMALL
GASTEIGER

@<TRIPOS>ATOM
      1 C         143.0825  140.5506  162.3564 C.ar    1  UNL1        0.0853
      2 C         143.8932  139.3179  162.6268 C.ar    1  UNL1        0.1045
      3 N         143.9719  138.7622  164.0179 N.ar    1  UNL1       -0.2436
      4 C         143.2398  139.4391  165.1385 C.ar    1  UNL1        0.0833
      5 C         143.3185  138.8833  166.5295 C.ar    1  UNL1        0.0305
      6 C         142.5864  139.5603  167.6501 C.ar    1  UNL1        0.0592
      7 CL        142.6651  139.0045  169.0411 Cl      1  UNL1       -0.0822
      8 C         141.7756  140.7930  167.3797 C.ar    1  UNL1        0.0122
      9 C         141.6970  141.3488  165.9887 C.ar    1  UNL1        0.0036
     10 C         142.4291  140.6718  164.8680 C.ar    1  UNL1        0.0310
     11 C         142.3505  141.2275  163.4770 C.ar    1  UNL1        0.0519
     12 C         141.0436  141.4700  168.5003 C.ar    1  UNL1        0.0200
     13 C         141.4395  142.8522  168.9279 C.ar    1  UNL1        0.0032
     14 C         140.7074  143.5291  170.0485 C.ar    1  UNL1        0.0207
     15 C         139.5794  142.8239  170.7415 C.ar    1  UNL1        0.0989
     16 N         139.1835  141.4418  170.3140 N.ar    1  UNL1       -0.2423
     17 C         139.9156  140.7648  169.1933 C.ar    1  UNL1        0.0989
     18 N         142.6533  140.2071  159.8172 N.am    1  UNL1       -0.3252
     19 C         143.0039  141.1063  160.9654 C.2     1  UNL1        0.2455
     20 O         143.2757  142.5613  160.7225 O.2     1  UNL1       -0.2703
     21 H         142.6017  140.5718  158.9042 H       1  UNL1        0.1453
     22 H         142.4749  139.2521  159.9765 H       1  UNL1        0.1453
     23 N         141.5397  142.4603  163.2066 N.pl3   1  UNL1       -0.3337
     24 H         141.9821  143.3379  163.1504 H       1  UNL1        0.1468
     25 C         140.0548  142.3558  163.0218 C.3     1  UNL1        0.0740
     26 C         139.4473  141.0710  162.5417 C.3     1  UNL1        0.0516
     27 C         137.9625  140.9665  162.3569 C.3     1  UNL1        0.1439
     28 O         137.0850  142.1467  162.6522 O.3     1  UNL1       -0.3537
     29 C         137.6924  143.4314  163.1322 C.3     1  UNL1        0.1439
     30 C         139.1773  143.5360  163.3170 C.3     1  UNL1        0.0516
@<TRIPOS>BOND
     1    18    19   am
     2    19    20    2
     3    19     1    1
     4     1     2   ar
     5     2     3   ar
     6     3     4   ar
     7     4     5   ar
     8     5     6   ar
     9     6     7    1
    10     6     8   ar
    11     8    12    1
    12    12    13   ar
    13    13    14   ar
    14    14    15   ar
    15    15    16   ar
    16    16    17   ar
    17     8     9   ar
    18     9    10   ar
    19    10    11   ar
    20    11    23    1
    21    23    25    1
    22    25    26    1
    23    26    27    1
    24    27    28    1
    25    28    29    1
    26    29    30    1
    27    11     1   ar
    28    30    25    1
    29    10     4   ar
    30    17    12   ar
    31    18    21    1
    32    18    22    1
    33    23    24    1
@<TRIPOS>MOLECULE
*****
 30 33 0 0 0
SMALL
GASTEIGER

@<TRIPOS>ATOM
      1 C         141.6847  140.8343  168.3113 C.ar    1  UNL1        0.0853
      2 C         142.9270  141.5685  168.7207 C.ar    1  UNL1        0.1045
      3 N         143.5979  142.5025  167.7576 N.ar    1  UNL1       -0.2436
      4 C         143.0266  142.7023  166.3852 C.ar    1  UNL1        0.0833
      5 C         143.6975  143.6364  165.4222 C.ar    1  UNL1        0.0305
      6 C         143.1262  143.8362  164.0497 C.ar    1  UNL1        0.0592
      7 CL        143.7971  144.7702  163.0867 Cl      1  UNL1       -0.0822
      8 C         141.8838  143.1019  163.6403 C.ar    1  UNL1        0.0122
      9 C         141.2129  142.1679  164.6033 C.ar    1  UNL1        0.0036
     10 C         141.7843  141.9681  165.9758 C.ar    1  UNL1        0.0310
     11 C         141.1134  141.0341  166.9388 C.ar    1  UNL1        0.0519
     12 C         141.3125  143.3017  162.2678 C.ar    1  UNL1        0.0200
     13 C         141.8524  142.5169  161.1091 C.ar    1  UNL1        0.0032
     14 C         141.2811  142.7167  159.7367 C.ar    1  UNL1        0.0207
     15 C         140.1698  143.7013  159.5229 C.ar    1  UNL1        0.0989
     16 N         139.6299  144.4861  160.6815 N.ar    1  UNL1       -0.2423
     17 C         140.2012  144.2863  162.0541 C.ar    1  UNL1        0.0989
     18 N         141.8352  139.1165  170.2546 N.am    1  UNL1       -0.3252
     19 C         141.0138  139.9002  169.2743 C.2     1  UNL1        0.2455
     20 O         139.5215  139.7499  169.2570 O.2     1  UNL1       -0.2703
     21 H         141.3948  138.5035  170.8867 H       1  UNL1        0.1453
     22 H         142.8146  139.2151  170.2660 H       1  UNL1        0.1453
     23 N         139.8710  140.2998  166.5294 N.pl3   1  UNL1       -0.3337
     24 H         139.0147  140.4951  166.9740 H       1  UNL1        0.1468
     25 C         139.9335  139.2680  165.4425 C.3     1  UNL1        0.0740
     26 C         138.7675  139.0816  164.5173 C.3     1  UNL1        0.0516
     27 C         138.8300  138.0498  163.4304 C.3     1  UNL1        0.1439
     28 O         140.0584  137.2043  163.2686 O.3     1  UNL1       -0.3537
     29 C         141.2244  137.3907  164.1936 C.3     1  UNL1        0.1439
     30 C         141.1620  138.4226  165.2806 C.3     1  UNL1        0.0516
@<TRIPOS>BOND
     1    18    19   am
     2    19    20    2
     3    19     1    1
     4     1     2   ar
     5     2     3   ar
     6     3     4   ar
     7     4     5   ar
     8     5     6   ar
     9     6     7    1
    10     6     8   ar
    11     8    12    1
    12    12    13   ar
    13    13    14   ar
    14    14    15   ar
    15    15    16   ar
    16    16    17   ar
    17     8     9   ar
    18     9    10   ar
    19    10    11   ar
    20    11    23    1
    21    23    25    1
    22    25    26    1
    23    26    27    1
    24    27    28    1
    25    28    29    1
    26    29    30    1
    27    11     1   ar
    28    30    25    1
    29    10     4   ar
    30    17    12   ar
    31    18    21    1
    32    18    22    1
    33    23    24    1
