@<TRIPOS>MOLECULE
*****
 33 36 0 0 0
SMALL
GASTEIGER

@<TRIPOS>ATOM
      1 N         141.1885  139.0618  163.4916 N.am    1  UNL1       -0.2555
      2 C         142.0159  139.8361  164.4745 C.3     1  UNL1        0.1197
      3 C         141.5104  140.0588  165.8692 C.3     1  UNL1        0.1160
      4 N         140.1777  139.5072  166.2809 N.am    1  UNL1       -0.2660
      5 C         139.6723  139.7299  167.6755 C.2     1  UNL1        0.2496
      6 O         138.3395  139.1784  168.0872 O.2     1  UNL1       -0.2699
      7 C         139.3503  138.7329  165.2980 C.3     1  UNL1        0.1799
      8 C         139.8558  138.5103  163.9034 C.2     1  UNL1        0.2497
      9 O         139.0284  137.7360  162.9205 O.2     1  UNL1       -0.2727
     10 C         140.4996  140.5042  168.6583 C.ar    1  UNL1        0.0581
     11 C         140.2921  141.9816  168.8138 C.ar    1  UNL1        0.0343
     12 C         141.1195  142.7558  169.7967 C.ar    1  UNL1        0.1425
     13 F         140.9119  144.2332  169.9522 F       1  UNL1       -0.2041
     14 C         142.1543  142.0527  170.6241 C.ar    1  UNL1        0.0592
     15 C         142.3619  140.5752  170.4686 C.ar    1  UNL1        0.1425
     16 F         143.3967  139.8721  171.2959 F       1  UNL1       -0.2041
     17 C         141.5345  139.8010  169.4857 C.ar    1  UNL1        0.0343
     18 C         142.7046  138.3937  159.3078 C.ar    1  UNL1        0.1386
     19 C         141.4834  139.2337  159.5377 C.ar    1  UNL1        0.0382
     20 C         140.9780  139.4564  160.9323 C.ar    1  UNL1        0.0180
     21 C         141.6939  138.8391  162.0970 C.ar    1  UNL1        0.0541
     22 C         142.9152  137.9991  161.8670 C.ar    1  UNL1        0.0180
     23 C         143.4206  137.7764  160.4724 C.ar    1  UNL1        0.0382
     24 O         143.2101  138.1710  157.9131 O.3     1  UNL1       -0.4754
     25 C         142.5436  137.1616  157.0261 C.3     1  UNL1        0.2068
     26 C         143.3222  135.9893  156.5067 C.3     1  UNL1        0.0646
     27 C         142.7647  134.6027  156.6346 C.3     1  UNL1        0.0759
     28 C         143.1594  132.2267  154.4328 C.3     1  UNL1        0.0173
     29 C         143.8733  132.3381  155.7473 C.3     1  UNL1        0.0576
     30 C         144.8940  131.3769  156.2805 C.3     1  UNL1        0.0174
     31 C         145.3434  131.8749  157.6221 C.3     1  UNL1        0.0187
     32 C         144.6005  133.1439  157.9181 C.3     1  UNL1        0.0721
     33 N         143.6919  133.4302  156.7594 N.3     1  UNL1       -0.2738
@<TRIPOS>BOND
     1    29    28    1
     2    29    30    1
     3    30    31    1
     4    31    32    1
     5    32    33    1
     6    33    27    1
     7    27    26    1
     8    26    25    1
     9    25    24    1
    10    24    18    1
    11    18    19   ar
    12    19    20   ar
    13    20    21   ar
    14    21     1    1
    15     1     2    1
    16     2     3    1
    17     3     4    1
    18     4     5   am
    19     5     6    2
    20     5    10    1
    21    10    11   ar
    22    11    12   ar
    23    12    13    1
    24    12    14   ar
    25    14    15   ar
    26    15    16    1
    27    15    17   ar
    28     4     7    1
    29     7     8    1
    30     8     9    2
    31    21    22   ar
    32    22    23   ar
    33    33    29    1
    34    23    18   ar
    35     8     1   am
    36    17    10   ar
@<TRIPOS>MOLECULE
*****
 33 36 0 0 0
SMALL
GASTEIGER

@<TRIPOS>ATOM
      1 N         141.0438  139.0469  163.5133 N.am    1  UNL1       -0.2555
      2 C         141.8806  139.8208  164.4884 C.3     1  UNL1        0.1197
      3 C         141.3882  140.0439  165.8876 C.3     1  UNL1        0.1160
      4 N         140.0590  139.4931  166.3117 N.am    1  UNL1       -0.2660
      5 C         139.5666  139.7162  167.7109 C.2     1  UNL1        0.2496
      6 O         138.2374  139.1653  168.1350 O.2     1  UNL1       -0.2699
      7 C         139.2222  138.7192  165.3365 C.3     1  UNL1        0.1799
      8 C         139.7146  138.4961  163.9374 C.2     1  UNL1        0.2497
      9 O         138.8778  137.7221  162.9622 O.2     1  UNL1       -0.2727
     10 C         140.4034  140.4901  168.6860 C.ar    1  UNL1        0.0581
     11 C         141.4318  139.7832  169.5182 C.ar    1  UNL1        0.0343
     12 C         142.2686  140.5572  170.4933 C.ar    1  UNL1        0.1425
     13 F         143.2971  139.8503  171.3255 F       1  UNL1       -0.2041
     14 C         142.0769  142.0380  170.6362 C.ar    1  UNL1        0.0592
     15 C         141.0484  142.7449  169.8040 C.ar    1  UNL1        0.1425
     16 F         140.8567  144.2256  169.9469 F       1  UNL1       -0.2041
     17 C         140.2117  141.9709  168.8289 C.ar    1  UNL1        0.0343
     18 C         142.5210  138.3776  159.3157 C.ar    1  UNL1        0.1386
     19 C         143.1134  137.5985  160.4524 C.ar    1  UNL1        0.0382
     20 C         142.6210  137.8217  161.8515 C.ar    1  UNL1        0.0180
     21 C         141.5362  138.8238  162.1140 C.ar    1  UNL1        0.0541
     22 C         140.9438  139.6029  160.9773 C.ar    1  UNL1        0.0180
     23 C         141.4362  139.3798  159.5782 C.ar    1  UNL1        0.0382
     24 O         143.0134  138.1545  157.9164 O.3     1  UNL1       -0.4754
     25 C         142.4262  137.0558  157.0810 C.3     1  UNL1        0.2068
     26 C         143.3087  135.9677  156.5450 C.3     1  UNL1        0.0646
     27 C         142.7783  134.5714  156.4072 C.3     1  UNL1        0.0759
     28 C         143.2463  132.0834  154.3480 C.3     1  UNL1        0.0173
     29 C         143.9009  132.2551  155.6867 C.3     1  UNL1        0.0576
     30 C         144.8856  131.3133  156.3138 C.3     1  UNL1        0.0174
     31 C         145.2792  131.8748  157.6479 C.3     1  UNL1        0.0187
     32 C         144.5376  133.1637  157.8453 C.3     1  UNL1        0.0721
     33 N         143.6858  133.3987  156.6332 N.3     1  UNL1       -0.2738
@<TRIPOS>BOND
     1    29    28    1
     2    29    30    1
     3    30    31    1
     4    31    32    1
     5    32    33    1
     6    33    27    1
     7    27    26    1
     8    26    25    1
     9    25    24    1
    10    24    18    1
    11    18    19   ar
    12    19    20   ar
    13    20    21   ar
    14    21     1    1
    15     1     2    1
    16     2     3    1
    17     3     4    1
    18     4     5   am
    19     5     6    2
    20     5    10    1
    21    10    11   ar
    22    11    12   ar
    23    12    13    1
    24    12    14   ar
    25    14    15   ar
    26    15    16    1
    27    15    17   ar
    28     4     7    1
    29     7     8    1
    30     8     9    2
    31    21    22   ar
    32    22    23   ar
    33    33    29    1
    34    23    18   ar
    35     8     1   am
    36    17    10   ar
@<TRIPOS>MOLECULE
*****
 33 36 0 0 0
SMALL
GASTEIGER

@<TRIPOS>ATOM
      1 N         139.8417  140.9827  163.1558 N.am    1  UNL1       -0.2555
      2 C         140.6883  141.8735  164.0159 C.3     1  UNL1        0.1197
      3 C         140.6656  141.7176  165.5077 C.3     1  UNL1        0.1160
      4 N         139.7964  140.6709  166.1393 N.am    1  UNL1       -0.2660
      5 C         139.7737  140.5149  167.6309 C.2     1  UNL1        0.2496
      6 O         138.9045  139.4682  168.2625 O.2     1  UNL1       -0.2699
      7 C         138.9498  139.7801  165.2791 C.3     1  UNL1        0.1799
      8 C         138.9725  139.9360  163.7874 C.2     1  UNL1        0.2497
      9 O         138.1259  139.0452  162.9272 O.2     1  UNL1       -0.2727
     10 C         140.6203  141.4057  168.4910 C.ar    1  UNL1        0.0581
     11 C         140.0967  142.7403  168.9322 C.ar    1  UNL1        0.0343
     12 C         140.9433  143.6311  169.7924 C.ar    1  UNL1        0.1425
     13 F         140.4197  144.9657  170.2336 F       1  UNL1       -0.2041
     14 C         142.3135  143.1872  170.2113 C.ar    1  UNL1        0.0592
     15 C         142.8371  141.8526  169.7701 C.ar    1  UNL1        0.1425
     16 F         144.2073  141.4088  170.1890 F       1  UNL1       -0.2041
     17 C         141.9906  140.9619  168.9100 C.ar    1  UNL1        0.0343
     18 C         139.9096  141.4505  158.6807 C.ar    1  UNL1        0.1386
     19 C         138.9073  142.2093  159.4990 C.ar    1  UNL1        0.0382
     20 C         138.8847  142.0533  160.9907 C.ar    1  UNL1        0.0180
     21 C         139.8644  141.1386  161.6641 C.ar    1  UNL1        0.0541
     22 C         140.8667  140.3798  160.8458 C.ar    1  UNL1        0.0180
     23 C         140.8893  140.5358  159.3542 C.ar    1  UNL1        0.0382
     24 O         139.9322  141.6064  157.1890 O.3     1  UNL1       -0.4754
     25 C         140.6400  142.7738  156.5676 C.3     1  UNL1        0.2068
     26 C         142.1038  142.9839  156.8192 C.3     1  UNL1        0.0646
     27 C         142.5674  144.1824  157.5928 C.3     1  UNL1        0.0759
     28 C         143.6964  142.7726  160.3107 C.3     1  UNL1        0.0173
     29 C         142.5793  143.7706  160.2338 C.3     1  UNL1        0.0576
     30 C         141.7851  144.2959  161.3928 C.3     1  UNL1        0.0174
     31 C         140.7752  145.2687  160.8598 C.3     1  UNL1        0.0187
     32 C         140.9454  145.3445  159.3714 C.3     1  UNL1        0.0721
     33 N         142.0604  144.4187  158.9846 N.3     1  UNL1       -0.2738
@<TRIPOS>BOND
     1    29    28    1
     2    29    30    1
     3    30    31    1
     4    31    32    1
     5    32    33    1
     6    33    27    1
     7    27    26    1
     8    26    25    1
     9    25    24    1
    10    24    18    1
    11    18    19   ar
    12    19    20   ar
    13    20    21   ar
    14    21     1    1
    15     1     2    1
    16     2     3    1
    17     3     4    1
    18     4     5   am
    19     5     6    2
    20     5    10    1
    21    10    11   ar
    22    11    12   ar
    23    12    13    1
    24    12    14   ar
    25    14    15   ar
    26    15    16    1
    27    15    17   ar
    28     4     7    1
    29     7     8    1
    30     8     9    2
    31    21    22   ar
    32    22    23   ar
    33    33    29    1
    34    23    18   ar
    35     8     1   am
    36    17    10   ar
@<TRIPOS>MOLECULE
*****
 33 36 0 0 0
SMALL
GASTEIGER

@<TRIPOS>ATOM
      1 N         142.4969  140.8402  163.0845 N.am    1  UNL1       -0.2555
      2 C         141.6055  141.6241  164.0014 C.3     1  UNL1        0.1197
      3 C         141.5662  141.3018  165.4659 C.3     1  UNL1        0.1160
      4 N         142.4185  140.1955  166.0134 N.am    1  UNL1       -0.2660
      5 C         142.3793  139.8731  167.4778 C.2     1  UNL1        0.2496
      6 O         143.2316  138.7668  168.0253 O.2     1  UNL1       -0.2699
      7 C         143.3100  139.4116  165.0964 C.3     1  UNL1        0.1799
      8 C         143.3492  139.7339  163.6320 C.2     1  UNL1        0.2497
      9 O         144.2407  138.9500  162.7151 O.2     1  UNL1       -0.2727
     10 C         141.4879  140.6571  168.3947 C.ar    1  UNL1        0.0581
     11 C         141.8863  142.0361  168.8299 C.ar    1  UNL1        0.0343
     12 C         140.9947  142.8200  169.7469 C.ar    1  UNL1        0.1425
     13 F         141.3931  144.1991  170.1821 F       1  UNL1       -0.2041
     14 C         139.7049  142.2249  170.2285 C.ar    1  UNL1        0.0592
     15 C         139.3065  140.8458  169.7933 C.ar    1  UNL1        0.1425
     16 F         138.0166  140.2507  170.2749 F       1  UNL1       -0.2041
     17 C         140.1979  140.0619  168.8764 C.ar    1  UNL1        0.0343
     18 C         142.6147  141.8073  158.6913 C.ar    1  UNL1        0.1386
     19 C         143.4626  142.5853  159.6534 C.ar    1  UNL1        0.0382
     20 C         143.4233  142.2629  161.1178 C.ar    1  UNL1        0.0180
     21 C         142.5361  141.1626  161.6200 C.ar    1  UNL1        0.0541
     22 C         141.6882  140.3846  160.6579 C.ar    1  UNL1        0.0180
     23 C         141.7275  140.7070  159.1935 C.ar    1  UNL1        0.0382
     24 O         142.6539  142.1297  157.2268 O.3     1  UNL1       -0.4754
     25 C         141.7501  143.1880  156.6673 C.3     1  UNL1        0.2068
     26 C         140.2713  142.9480  156.5912 C.3     1  UNL1        0.0646
     27 C         139.3379  143.7351  157.4626 C.3     1  UNL1        0.0759
     28 C         141.0510  145.3416  159.7284 C.3     1  UNL1        0.0173
     29 C         140.0869  144.2209  159.9821 C.3     1  UNL1        0.0576
     30 C         139.7409  143.6418  161.3218 C.3     1  UNL1        0.0174
     31 C         138.7396  142.5454  161.1084 C.3     1  UNL1        0.0187
     32 C         138.4668  142.4469  159.6367 C.3     1  UNL1        0.0721
     33 N         139.2995  143.4824  158.9406 N.3     1  UNL1       -0.2738
@<TRIPOS>BOND
     1    29    28    1
     2    29    30    1
     3    30    31    1
     4    31    32    1
     5    32    33    1
     6    33    27    1
     7    27    26    1
     8    26    25    1
     9    25    24    1
    10    24    18    1
    11    18    19   ar
    12    19    20   ar
    13    20    21   ar
    14    21     1    1
    15     1     2    1
    16     2     3    1
    17     3     4    1
    18     4     5   am
    19     5     6    2
    20     5    10    1
    21    10    11   ar
    22    11    12   ar
    23    12    13    1
    24    12    14   ar
    25    14    15   ar
    26    15    16    1
    27    15    17   ar
    28     4     7    1
    29     7     8    1
    30     8     9    2
    31    21    22   ar
    32    22    23   ar
    33    33    29    1
    34    23    18   ar
    35     8     1   am
    36    17    10   ar
@<TRIPOS>MOLECULE
*****
 33 36 0 0 0
SMALL
GASTEIGER

@<TRIPOS>ATOM
      1 N         142.5197  140.8770  163.0858 N.am    1  UNL1       -0.2555
      2 C         141.6249  141.6563  164.0033 C.3     1  UNL1        0.1197
      3 C         141.5780  141.3246  165.4654 C.3     1  UNL1        0.1160
      4 N         142.4260  140.2136  166.0100 N.am    1  UNL1       -0.2660
      5 C         142.3792  139.8819  167.4721 C.2     1  UNL1        0.2496
      6 O         143.2272  138.7709  168.0166 O.2     1  UNL1       -0.2699
      7 C         143.3209  139.4343  165.0924 C.3     1  UNL1        0.1799
      8 C         143.3677  139.7660  163.6303 C.2     1  UNL1        0.2497
      9 O         144.2626  138.9867  162.7127 O.2     1  UNL1       -0.2727
     10 C         141.4843  140.6612  168.3896 C.ar    1  UNL1        0.0581
     11 C         140.1974  140.0598  168.8714 C.ar    1  UNL1        0.0343
     12 C         139.3025  140.8392  169.7890 C.ar    1  UNL1        0.1425
     13 F         138.0156  140.2378  170.2708 F       1  UNL1       -0.2041
     14 C         139.6946  142.2199  170.2247 C.ar    1  UNL1        0.0592
     15 C         140.9815  142.8213  169.7429 C.ar    1  UNL1        0.1425
     16 F         141.3736  144.2020  170.1786 F       1  UNL1       -0.2041
     17 C         141.8764  142.0420  168.8254 C.ar    1  UNL1        0.0343
     18 C         142.6604  141.8721  158.6994 C.ar    1  UNL1        0.1386
     19 C         143.5031  142.6441  159.6710 C.ar    1  UNL1        0.0382
     20 C         143.4562  142.3124  161.1331 C.ar    1  UNL1        0.0180
     21 C         142.5666  141.2087  161.6236 C.ar    1  UNL1        0.0541
     22 C         141.7240  140.4368  160.6520 C.ar    1  UNL1        0.0180
     23 C         141.7709  140.7685  159.1900 C.ar    1  UNL1        0.0382
     24 O         142.7073  142.2038  157.2373 O.3     1  UNL1       -0.4754
     25 C         141.8143  143.2734  156.6818 C.3     1  UNL1        0.2068
     26 C         140.3386  143.0316  156.5633 C.3     1  UNL1        0.0646
     27 C         139.3819  143.7917  157.4332 C.3     1  UNL1        0.0759
     28 C         141.0313  145.3371  159.7870 C.3     1  UNL1        0.0173
     29 C         140.0651  144.2068  159.9838 C.3     1  UNL1        0.0576
     30 C         139.6874  143.5883  161.2972 C.3     1  UNL1        0.0174
     31 C         138.6958  142.4957  161.0270 C.3     1  UNL1        0.0187
     32 C         138.4606  142.4390  159.5466 C.3     1  UNL1        0.0721
     33 N         139.3069  143.4964  158.9019 N.3     1  UNL1       -0.2738
@<TRIPOS>BOND
     1    29    28    1
     2    29    30    1
     3    30    31    1
     4    31    32    1
     5    32    33    1
     6    33    27    1
     7    27    26    1
     8    26    25    1
     9    25    24    1
    10    24    18    1
    11    18    19   ar
    12    19    20   ar
    13    20    21   ar
    14    21     1    1
    15     1     2    1
    16     2     3    1
    17     3     4    1
    18     4     5   am
    19     5     6    2
    20     5    10    1
    21    10    11   ar
    22    11    12   ar
    23    12    13    1
    24    12    14   ar
    25    14    15   ar
    26    15    16    1
    27    15    17   ar
    28     4     7    1
    29     7     8    1
    30     8     9    2
    31    21    22   ar
    32    22    23   ar
    33    33    29    1
    34    23    18   ar
    35     8     1   am
    36    17    10   ar
@<TRIPOS>MOLECULE
*****
 33 36 0 0 0
SMALL
GASTEIGER

@<TRIPOS>ATOM
      1 N         141.3067  139.9374  158.4363 N.am    1  UNL1       -0.2555
      2 C         140.7076  138.5974  158.1274 C.3     1  UNL1        0.1197
      3 C         141.4738  137.6053  157.3035 C.3     1  UNL1        0.1160
      4 N         142.8391  137.9532  156.7887 N.am    1  UNL1       -0.2660
      5 C         143.6053  136.9611  155.9649 C.2     1  UNL1        0.2496
      6 O         144.9705  137.3090  155.4501 O.2     1  UNL1       -0.2699
      7 C         143.4381  139.2932  157.0977 C.3     1  UNL1        0.1799
      8 C         142.6720  140.2853  157.9215 C.2     1  UNL1        0.2497
      9 O         143.2710  141.6254  158.2305 O.2     1  UNL1       -0.2727
     10 C         143.0062  135.6211  155.6559 C.ar    1  UNL1        0.0581
     11 C         142.2313  135.4205  154.3874 C.ar    1  UNL1        0.0343
     12 C         141.6322  134.0804  154.0784 C.ar    1  UNL1        0.1425
     13 F         140.8573  133.8797  152.8098 F       1  UNL1       -0.2041
     14 C         141.8080  132.9410  155.0380 C.ar    1  UNL1        0.0592
     15 C         142.5829  133.1417  156.3066 C.ar    1  UNL1        0.1425
     16 F         142.7587  132.0023  157.2662 F       1  UNL1       -0.2041
     17 C         143.1820  134.4817  156.6156 C.ar    1  UNL1        0.0343
     18 C         139.0082  142.9139  160.9076 C.ar    1  UNL1        0.1386
     19 C         138.5536  142.5838  159.5168 C.ar    1  UNL1        0.0382
     20 C         139.3198  141.5917  158.6931 C.ar    1  UNL1        0.0180
     21 C         140.5405  140.9296  159.2601 C.ar    1  UNL1        0.0541
     22 C         140.9951  141.2597  160.6510 C.ar    1  UNL1        0.0180
     23 C         140.2289  142.2518  161.4747 C.ar    1  UNL1        0.0382
     24 O         138.2420  143.9060  161.7315 O.3     1  UNL1       -0.4754
     25 C         138.3613  143.8906  163.2266 C.3     1  UNL1        0.2068
     26 C         137.7439  142.7750  164.0168 C.3     1  UNL1        0.0646
     27 C         137.2372  141.5500  163.3151 C.3     1  UNL1        0.0759
     28 C         137.7090  139.2056  161.0946 C.3     1  UNL1        0.0173
     29 C         138.1060  139.1440  162.5398 C.3     1  UNL1        0.0576
     30 C         138.7897  137.9939  163.2180 C.3     1  UNL1        0.0174
     31 C         138.9953  138.3607  164.6579 C.3     1  UNL1        0.0187
     32 C         138.4388  139.7375  164.8695 C.3     1  UNL1        0.0721
     33 N         137.8892  140.2216  163.5604 N.3     1  UNL1       -0.2738
@<TRIPOS>BOND
     1    29    28    1
     2    29    30    1
     3    30    31    1
     4    31    32    1
     5    32    33    1
     6    33    27    1
     7    27    26    1
     8    26    25    1
     9    25    24    1
    10    24    18    1
    11    18    19   ar
    12    19    20   ar
    13    20    21   ar
    14    21     1    1
    15     1     2    1
    16     2     3    1
    17     3     4    1
    18     4     5   am
    19     5     6    2
    20     5    10    1
    21    10    11   ar
    22    11    12   ar
    23    12    13    1
    24    12    14   ar
    25    14    15   ar
    26    15    16    1
    27    15    17   ar
    28     4     7    1
    29     7     8    1
    30     8     9    2
    31    21    22   ar
    32    22    23   ar
    33    33    29    1
    34    23    18   ar
    35     8     1   am
    36    17    10   ar
@<TRIPOS>MOLECULE
*****
 33 36 0 0 0
SMALL
GASTEIGER

@<TRIPOS>ATOM
      1 N         141.0423  139.7633  158.8170 N.am    1  UNL1       -0.2555
      2 C         140.6347  138.4108  158.3125 C.3     1  UNL1        0.1197
      3 C         141.5434  137.6473  157.3952 C.3     1  UNL1        0.1160
      4 N         142.8597  138.2364  156.9824 N.am    1  UNL1       -0.2660
      5 C         143.7684  137.4730  156.0652 C.2     1  UNL1        0.2496
      6 O         145.0847  138.0621  155.6524 O.2     1  UNL1       -0.2699
      7 C         143.2672  139.5890  157.4869 C.3     1  UNL1        0.1799
      8 C         142.3585  140.3524  158.4042 C.2     1  UNL1        0.2497
      9 O         142.7661  141.7050  158.9087 O.2     1  UNL1       -0.2727
     10 C         143.3608  136.1205  155.5608 C.ar    1  UNL1        0.0581
     11 C         143.6722  134.8943  156.3667 C.ar    1  UNL1        0.0343
     12 C         143.2646  133.5417  155.8622 C.ar    1  UNL1        0.1425
     13 F         143.5760  132.3155  156.6681 F       1  UNL1       -0.2041
     14 C         142.5457  133.4153  154.5518 C.ar    1  UNL1        0.0592
     15 C         142.2343  134.6415  153.7459 C.ar    1  UNL1        0.1425
     16 F         141.5154  134.5152  152.4355 F       1  UNL1       -0.2041
     17 C         142.6419  135.9941  154.2503 C.ar    1  UNL1        0.0343
     18 C         138.3162  142.0539  161.5687 C.ar    1  UNL1        0.1386
     19 C         138.4926  142.4984  160.1470 C.ar    1  UNL1        0.0382
     20 C         139.4013  141.7349  159.2298 C.ar    1  UNL1        0.0180
     21 C         140.1335  140.5269  159.7343 C.ar    1  UNL1        0.0541
     22 C         139.9570  140.0823  161.1559 C.ar    1  UNL1        0.0180
     23 C         139.0484  140.8458  162.0731 C.ar    1  UNL1        0.0382
     24 O         137.4074  142.8174  162.4860 O.3     1  UNL1       -0.4754
     25 C         137.7137  142.8936  163.9523 C.3     1  UNL1        0.2068
     26 C         138.1291  144.1984  164.5650 C.3     1  UNL1        0.0646
     27 C         139.5808  144.5711  164.6232 C.3     1  UNL1        0.0759
     28 C         139.7172  146.1624  161.7775 C.3     1  UNL1        0.0173
     29 C         140.5485  144.9754  162.1646 C.3     1  UNL1        0.0576
     30 C         141.5885  144.3114  161.3116 C.3     1  UNL1        0.0174
     31 C         142.1686  143.1696  162.0925 C.3     1  UNL1        0.0187
     32 C         141.4871  143.1279  163.4281 C.3     1  UNL1        0.0721
     33 N         140.4858  144.2439  163.4726 N.3     1  UNL1       -0.2738
@<TRIPOS>BOND
     1    29    28    1
     2    29    30    1
     3    30    31    1
     4    31    32    1
     5    32    33    1
     6    33    27    1
     7    27    26    1
     8    26    25    1
     9    25    24    1
    10    24    18    1
    11    18    19   ar
    12    19    20   ar
    13    20    21   ar
    14    21     1    1
    15     1     2    1
    16     2     3    1
    17     3     4    1
    18     4     5   am
    19     5     6    2
    20     5    10    1
    21    10    11   ar
    22    11    12   ar
    23    12    13    1
    24    12    14   ar
    25    14    15   ar
    26    15    16    1
    27    15    17   ar
    28     4     7    1
    29     7     8    1
    30     8     9    2
    31    21    22   ar
    32    22    23   ar
    33    33    29    1
    34    23    18   ar
    35     8     1   am
    36    17    10   ar
@<TRIPOS>MOLECULE
*****
 33 36 0 0 0
SMALL
GASTEIGER

@<TRIPOS>ATOM
      1 N         140.7946  139.4096  163.3410 N.am    1  UNL1       -0.2555
      2 C         141.6798  140.1392  164.3075 C.3     1  UNL1        0.1197
      3 C         141.2770  140.2627  165.7472 C.3     1  UNL1        0.1160
      4 N         139.9890  139.6567  166.2202 N.am    1  UNL1       -0.2660
      5 C         139.5861  139.7802  167.6598 C.2     1  UNL1        0.2496
      6 O         138.2982  139.1741  168.1329 O.2     1  UNL1       -0.2699
      7 C         139.1038  138.9271  165.2536 C.3     1  UNL1        0.1799
      8 C         139.5067  138.8036  163.8140 C.2     1  UNL1        0.2497
      9 O         138.6215  138.0740  162.8474 O.2     1  UNL1       -0.2727
     10 C         140.4713  140.5097  168.6263 C.ar    1  UNL1        0.0581
     11 C         141.5191  139.7613  169.3956 C.ar    1  UNL1        0.0343
     12 C         142.4043  140.4909  170.3622 C.ar    1  UNL1        0.1425
     13 F         143.4521  139.7425  171.1315 F       1  UNL1       -0.2041
     14 C         142.2416  141.9689  170.5594 C.ar    1  UNL1        0.0592
     15 C         141.1938  142.7174  169.7901 C.ar    1  UNL1        0.1425
     16 F         141.0311  144.1954  169.9873 F       1  UNL1       -0.2041
     17 C         140.3086  141.9878  168.8236 C.ar    1  UNL1        0.0343
     18 C         142.0031  139.0390  159.0222 C.ar    1  UNL1        0.1386
     19 C         142.6358  138.1559  160.0564 C.ar    1  UNL1        0.0382
     20 C         142.2330  138.2794  161.4960 C.ar    1  UNL1        0.0180
     21 C         141.1975  139.2861  161.9013 C.ar    1  UNL1        0.0541
     22 C         140.5648  140.1693  160.8671 C.ar    1  UNL1        0.0180
     23 C         140.9676  140.0457  159.4275 C.ar    1  UNL1        0.0382
     24 O         142.4060  138.9155  157.5825 O.3     1  UNL1       -0.4754
     25 C         143.2621  139.9722  156.9499 C.3     1  UNL1        0.2068
     26 C         144.3702  140.6092  157.7352 C.3     1  UNL1        0.0646
     27 C         144.2474  142.0349  158.1847 C.3     1  UNL1        0.0759
     28 C         141.9323  144.2060  158.9439 C.3     1  UNL1        0.0173
     29 C         142.6848  143.3439  159.9138 C.3     1  UNL1        0.0576
     30 C         142.5052  143.3283  161.4029 C.3     1  UNL1        0.0174
     31 C         143.4583  142.3207  161.9743 C.3     1  UNL1        0.0187
     32 C         144.2270  141.7136  160.8382 C.3     1  UNL1        0.0721
     33 N         143.7489  142.3459  159.5648 N.3     1  UNL1       -0.2738
@<TRIPOS>BOND
     1    29    28    1
     2    29    30    1
     3    30    31    1
     4    31    32    1
     5    32    33    1
     6    33    27    1
     7    27    26    1
     8    26    25    1
     9    25    24    1
    10    24    18    1
    11    18    19   ar
    12    19    20   ar
    13    20    21   ar
    14    21     1    1
    15     1     2    1
    16     2     3    1
    17     3     4    1
    18     4     5   am
    19     5     6    2
    20     5    10    1
    21    10    11   ar
    22    11    12   ar
    23    12    13    1
    24    12    14   ar
    25    14    15   ar
    26    15    16    1
    27    15    17   ar
    28     4     7    1
    29     7     8    1
    30     8     9    2
    31    21    22   ar
    32    22    23   ar
    33    33    29    1
    34    23    18   ar
    35     8     1   am
    36    17    10   ar
@<TRIPOS>MOLECULE
*****
 33 36 0 0 0
SMALL
GASTEIGER

@<TRIPOS>ATOM
      1 N         139.0262  139.7298  162.3543 N.am    1  UNL1       -0.2555
      2 C         138.3582  140.8670  161.6399 C.3     1  UNL1        0.1197
      3 C         138.3511  140.9101  160.1404 C.3     1  UNL1        0.1160
      4 N         139.0121  139.8159  159.3556 N.am    1  UNL1       -0.2660
      5 C         139.0050  139.8590  157.8563 C.2     1  UNL1        0.2496
      6 O         139.6660  138.7648  157.0714 O.2     1  UNL1       -0.2699
      7 C         139.6801  138.6787  160.0701 C.3     1  UNL1        0.1799
      8 C         139.6872  138.6357  161.5695 C.2     1  UNL1        0.2497
      9 O         140.3552  137.4984  162.2840 O.2     1  UNL1       -0.2727
     10 C         138.3370  140.9962  157.1418 C.ar    1  UNL1        0.0581
     11 C         136.9380  140.8385  156.6244 C.ar    1  UNL1        0.0343
     12 C         136.2699  141.9758  155.9099 C.ar    1  UNL1        0.1425
     13 F         134.8709  141.8181  155.3924 F       1  UNL1       -0.2041
     14 C         137.0010  143.2706  155.7128 C.ar    1  UNL1        0.0592
     15 C         138.4001  143.4283  156.2302 C.ar    1  UNL1        0.1425
     16 F         139.1311  144.7231  156.0332 F       1  UNL1       -0.2041
     17 C         139.0681  142.2911  156.9447 C.ar    1  UNL1        0.0343
     18 C         139.0474  139.6004  166.8524 C.ar    1  UNL1        0.1386
     19 C         138.6326  138.3903  166.0693 C.ar    1  UNL1        0.0382
     20 C         138.6255  138.4334  164.5700 C.ar    1  UNL1        0.0180
     21 C         139.0333  139.6867  163.8538 C.ar    1  UNL1        0.0541
     22 C         139.4482  140.8968  164.6369 C.ar    1  UNL1        0.0180
     23 C         139.4553  140.8537  166.1362 C.ar    1  UNL1        0.0382
     24 O         139.0545  139.5573  168.3518 O.3     1  UNL1       -0.4754
     25 C         140.1954  140.1632  169.1142 C.3     1  UNL1        0.2068
     26 C         141.5789  139.6031  168.9646 C.3     1  UNL1        0.0646
     27 C         142.6011  140.3372  168.1485 C.3     1  UNL1        0.0759
     28 C         143.5003  142.4521  165.8315 C.3     1  UNL1        0.0173
     29 C         143.1678  141.0043  165.6229 C.3     1  UNL1        0.0576
     30 C         143.1902  140.2746  164.3126 C.3     1  UNL1        0.0174
     31 C         142.7908  138.8514  164.5678 C.3     1  UNL1        0.0187
     32 C         142.5215  138.7016  166.0358 C.3     1  UNL1        0.0721
     33 N         142.7545  140.0323  166.6879 N.3     1  UNL1       -0.2738
@<TRIPOS>BOND
     1    29    28    1
     2    29    30    1
     3    30    31    1
     4    31    32    1
     5    32    33    1
     6    33    27    1
     7    27    26    1
     8    26    25    1
     9    25    24    1
    10    24    18    1
    11    18    19   ar
    12    19    20   ar
    13    20    21   ar
    14    21     1    1
    15     1     2    1
    16     2     3    1
    17     3     4    1
    18     4     5   am
    19     5     6    2
    20     5    10    1
    21    10    11   ar
    22    11    12   ar
    23    12    13    1
    24    12    14   ar
    25    14    15   ar
    26    15    16    1
    27    15    17   ar
    28     4     7    1
    29     7     8    1
    30     8     9    2
    31    21    22   ar
    32    22    23   ar
    33    33    29    1
    34    23    18   ar
    35     8     1   am
    36    17    10   ar
