@<TRIPOS>MOLECULE
*****
 27 29 0 0 0
SMALL
GASTEIGER

@<TRIPOS>ATOM
      1 C         141.0157  141.5935  161.9150 C.3     1  UNL1        0.4076
      2 N         141.1636  141.6532  163.4065 N.ar    1  UNL1       -0.1706
      3 C         140.6292  142.8308  164.1665 C.ar    1  UNL1        0.2030
      4 C         140.7771  142.8906  165.6580 C.ar    1  UNL1        0.0646
      5 C         141.4593  141.7727  166.3895 C.ar    1  UNL1        0.0115
      6 C         141.9936  140.5951  165.6294 C.ar    1  UNL1        0.0646
      7 C         141.8457  140.5354  164.1379 C.ar    1  UNL1        0.2030
      8 C         139.9470  143.9487  163.4351 C.3     1  UNL1        0.1006
      9 C         138.4728  143.8802  163.1672 C.3     1  UNL1        0.0584
     10 C         137.6475  142.7920  163.7878 C.3     1  UNL1        0.2060
     11 O         137.5018  141.4716  163.0914 O.3     1  UNL1       -0.4754
     12 C         138.0320  140.2233  163.7321 C.ar    1  UNL1        0.1386
     13 C         138.4167  139.0489  162.8818 C.ar    1  UNL1        0.0369
     14 C         138.9468  137.8006  163.5226 C.ar    1  UNL1        0.0031
     15 C         139.0923  137.7266  165.0137 C.ar    1  UNL1        0.0002
     16 C         138.7076  138.9008  165.8640 C.ar    1  UNL1        0.0031
     17 C         138.1774  140.1492  165.2232 C.ar    1  UNL1        0.0369
     18 C         142.3801  139.3577  163.3778 C.3     1  UNL1        0.1006
     19 C         143.8395  139.2829  163.0397 C.3     1  UNL1        0.0584
     20 C         144.3891  140.0953  161.9048 C.3     1  UNL1        0.2060
     21 O         145.3081  141.2476  162.1834 O.3     1  UNL1       -0.4754
     22 C         144.8148  142.4279  162.9668 C.ar    1  UNL1        0.1386
     23 C         144.9756  142.4585  164.4578 C.ar    1  UNL1        0.0369
     24 C         144.4823  143.6387  165.2413 C.ar    1  UNL1        0.0031
     25 C         143.8283  144.7883  164.5336 C.ar    1  UNL1        0.0002
     26 C         143.6676  144.7576  163.0426 C.ar    1  UNL1        0.0031
     27 C         144.1608  143.5774  162.2592 C.ar    1  UNL1        0.0369
@<TRIPOS>UNITY_ATOM_ATTR
2 1
charge 1
@<TRIPOS>BOND
     1     1     2    1
     2     2     3   ar
     3     3     8    1
     4     8     9    1
     5     9    10    1
     6    10    11    1
     7    11    12    1
     8    12    13   ar
     9    13    14   ar
    10    14    15   ar
    11    15    16   ar
    12    16    17   ar
    13     3     4   ar
    14     4     5   ar
    15     5     6   ar
    16     6     7   ar
    17     7    18    1
    18    18    19    1
    19    19    20    1
    20    20    21    1
    21    21    22    1
    22    22    23   ar
    23    23    24   ar
    24    24    25   ar
    25    25    26   ar
    26    26    27   ar
    27     7     2   ar
    28    27    22   ar
    29    17    12   ar
@<TRIPOS>MOLECULE
*****
 27 29 0 0 0
SMALL
GASTEIGER

@<TRIPOS>ATOM
      1 C         141.1870  141.3624  161.9012 C.3     1  UNL1        0.4076
      2 N         141.2036  141.6414  163.3749 N.ar    1  UNL1       -0.1706
      3 C         141.7864  140.6349  164.3223 C.ar    1  UNL1        0.2030
      4 C         141.8029  140.9139  165.7960 C.ar    1  UNL1        0.0646
      5 C         141.2368  142.1993  166.3224 C.ar    1  UNL1        0.0115
      6 C         140.6540  143.2057  165.3751 C.ar    1  UNL1        0.0646
      7 C         140.6374  142.9267  163.9013 C.ar    1  UNL1        0.2030
      8 C         142.3526  139.3495  163.7959 C.3     1  UNL1        0.1006
      9 C         143.7623  139.3042  163.2855 C.3     1  UNL1        0.0584
     10 C         144.8895  139.7817  164.1524 C.3     1  UNL1        0.2060
     11 O         145.6581  141.0127  163.7728 O.3     1  UNL1       -0.4754
     12 C         144.9797  142.3505  163.7743 C.ar    1  UNL1        0.1386
     13 C         144.7784  143.0880  165.0649 C.ar    1  UNL1        0.0369
     14 C         144.1001  144.4258  165.0664 C.ar    1  UNL1        0.0031
     15 C         143.6230  145.0262  163.7772 C.ar    1  UNL1        0.0002
     16 C         143.8242  144.2888  162.4867 C.ar    1  UNL1        0.0031
     17 C         144.5026  142.9509  162.4852 C.ar    1  UNL1        0.0369
     18 C         140.0546  143.9332  162.9540 C.3     1  UNL1        0.1006
     19 C         138.5951  143.8833  162.6113 C.3     1  UNL1        0.0584
     20 C         137.6882  142.9287  163.3298 C.3     1  UNL1        0.2060
     21 O         137.3990  141.5805  162.7392 O.3     1  UNL1       -0.4754
     22 C         137.9376  140.3434  163.3946 C.ar    1  UNL1        0.1386
     23 C         138.0990  140.2939  164.8851 C.ar    1  UNL1        0.0369
     24 C         138.6376  139.0568  165.5404 C.ar    1  UNL1        0.0031
     25 C         139.0148  137.8693  164.7054 C.ar    1  UNL1        0.0002
     26 C         138.8533  137.9188  163.2149 C.ar    1  UNL1        0.0031
     27 C         138.3148  139.1558  162.5595 C.ar    1  UNL1        0.0369
@<TRIPOS>UNITY_ATOM_ATTR
2 1
charge 1
@<TRIPOS>BOND
     1     1     2    1
     2     2     3   ar
     3     3     8    1
     4     8     9    1
     5     9    10    1
     6    10    11    1
     7    11    12    1
     8    12    13   ar
     9    13    14   ar
    10    14    15   ar
    11    15    16   ar
    12    16    17   ar
    13     3     4   ar
    14     4     5   ar
    15     5     6   ar
    16     6     7   ar
    17     7    18    1
    18    18    19    1
    19    19    20    1
    20    20    21    1
    21    21    22    1
    22    22    23   ar
    23    23    24   ar
    24    24    25   ar
    25    25    26   ar
    26    26    27   ar
    27     7     2   ar
    28    27    22   ar
    29    17    12   ar
@<TRIPOS>MOLECULE
*****
 27 29 0 0 0
SMALL
GASTEIGER

@<TRIPOS>ATOM
      1 C         141.6099  140.4599  162.0263 C.3     1  UNL1        0.4076
      2 N         142.0085  139.8233  163.3247 N.ar    1  UNL1       -0.1706
      3 C         141.4706  138.4727  163.6940 C.ar    1  UNL1        0.2030
      4 C         141.8691  137.8360  164.9924 C.ar    1  UNL1        0.0646
      5 C         142.8055  138.5500  165.9216 C.ar    1  UNL1        0.0115
      6 C         143.3434  139.9007  165.5522 C.ar    1  UNL1        0.0646
      7 C         142.9449  140.5373  164.2538 C.ar    1  UNL1        0.2030
      8 C         140.5341  137.7586  162.7649 C.3     1  UNL1        0.1006
      9 C         139.0559  137.7934  163.0171 C.3     1  UNL1        0.0584
     10 C         138.2414  138.9602  162.5424 C.3     1  UNL1        0.2060
     11 O         137.7903  140.0064  163.5180 O.3     1  UNL1       -0.4754
     12 C         138.4101  140.0768  164.8821 C.ar    1  UNL1        0.1386
     13 C         139.4466  141.1188  165.1822 C.ar    1  UNL1        0.0369
     14 C         140.0663  141.1892  166.5463 C.ar    1  UNL1        0.0031
     15 C         139.6496  140.2176  167.6105 C.ar    1  UNL1        0.0002
     16 C         138.6132  139.1756  167.3105 C.ar    1  UNL1        0.0031
     17 C         137.9934  139.1052  165.9463 C.ar    1  UNL1        0.0369
     18 C         143.4828  141.8880  163.8845 C.3     1  UNL1        0.1006
     19 C         142.9784  143.1138  164.5868 C.3     1  UNL1        0.0584
     20 C         142.9086  144.4217  163.8558 C.3     1  UNL1        0.2060
     21 O         141.6945  145.2922  163.9902 O.3     1  UNL1       -0.4754
     22 C         140.3293  144.7165  163.7558 C.ar    1  UNL1        0.1386
     23 C         140.0163  144.0329  162.4578 C.ar    1  UNL1        0.0369
     24 C         138.6512  143.4573  162.2233 C.ar    1  UNL1        0.0031
     25 C         137.5990  143.5652  163.2869 C.ar    1  UNL1        0.0002
     26 C         137.9119  144.2488  164.5849 C.ar    1  UNL1        0.0031
     27 C         139.2770  144.8244  164.8193 C.ar    1  UNL1        0.0369
@<TRIPOS>UNITY_ATOM_ATTR
2 1
charge 1
@<TRIPOS>BOND
     1     1     2    1
     2     2     3   ar
     3     3     8    1
     4     8     9    1
     5     9    10    1
     6    10    11    1
     7    11    12    1
     8    12    13   ar
     9    13    14   ar
    10    14    15   ar
    11    15    16   ar
    12    16    17   ar
    13     3     4   ar
    14     4     5   ar
    15     5     6   ar
    16     6     7   ar
    17     7    18    1
    18    18    19    1
    19    19    20    1
    20    20    21    1
    21    21    22    1
    22    22    23   ar
    23    23    24   ar
    24    24    25   ar
    25    25    26   ar
    26    26    27   ar
    27     7     2   ar
    28    27    22   ar
    29    17    12   ar
@<TRIPOS>MOLECULE
*****
 27 29 0 0 0
SMALL
GASTEIGER

@<TRIPOS>ATOM
      1 C         140.6215  145.6321  162.8221 C.3     1  UNL1        0.4076
      2 N         140.9754  144.6216  163.8726 N.ar    1  UNL1       -0.1706
      3 C         142.3813  144.1092  163.9769 C.ar    1  UNL1        0.2030
      4 C         142.7353  143.0988  165.0275 C.ar    1  UNL1        0.0646
      5 C         141.6834  142.6007  165.9737 C.ar    1  UNL1        0.0115
      6 C         140.2775  143.1131  165.8694 C.ar    1  UNL1        0.0646
      7 C         139.9236  144.1236  164.8189 C.ar    1  UNL1        0.2030
      8 C         143.4333  144.6073  163.0307 C.3     1  UNL1        0.1006
      9 C         144.5221  143.6856  162.5671 C.3     1  UNL1        0.0584
     10 C         144.3289  142.8587  161.3306 C.3     1  UNL1        0.2060
     11 O         143.4645  141.6336  161.3751 O.3     1  UNL1       -0.4754
     12 C         143.5179  140.7209  162.5641 C.ar    1  UNL1        0.1386
     13 C         142.2518  140.1426  163.1233 C.ar    1  UNL1        0.0369
     14 C         142.3052  139.2298  164.3123 C.ar    1  UNL1        0.0031
     15 C         143.6247  138.8952  164.9423 C.ar    1  UNL1        0.0002
     16 C         144.8908  139.4734  164.3832 C.ar    1  UNL1        0.0031
     17 C         144.8374  140.3863  163.1941 C.ar    1  UNL1        0.0369
     18 C         138.5176  144.6360  164.7146 C.3     1  UNL1        0.1006
     19 C         137.5511  143.9872  163.7685 C.3     1  UNL1        0.0584
     20 C         138.0072  142.8664  162.8821 C.3     1  UNL1        0.2060
     21 O         137.2279  141.5858  162.8311 O.3     1  UNL1       -0.4754
     22 C         137.8274  140.3210  163.3706 C.ar    1  UNL1        0.1386
     23 C         138.1118  139.1729  162.4481 C.ar    1  UNL1        0.0369
     24 C         138.7112  137.9081  162.9875 C.ar    1  UNL1        0.0031
     25 C         139.0263  137.7915  164.4493 C.ar    1  UNL1        0.0002
     26 C         138.7419  138.9396  165.3718 C.ar    1  UNL1        0.0031
     27 C         138.1425  140.2044  164.8324 C.ar    1  UNL1        0.0369
@<TRIPOS>UNITY_ATOM_ATTR
2 1
charge 1
@<TRIPOS>BOND
     1     1     2    1
     2     2     3   ar
     3     3     8    1
     4     8     9    1
     5     9    10    1
     6    10    11    1
     7    11    12    1
     8    12    13   ar
     9    13    14   ar
    10    14    15   ar
    11    15    16   ar
    12    16    17   ar
    13     3     4   ar
    14     4     5   ar
    15     5     6   ar
    16     6     7   ar
    17     7    18    1
    18    18    19    1
    19    19    20    1
    20    20    21    1
    21    21    22    1
    22    22    23   ar
    23    23    24   ar
    24    24    25   ar
    25    25    26   ar
    26    26    27   ar
    27     7     2   ar
    28    27    22   ar
    29    17    12   ar
@<TRIPOS>MOLECULE
*****
 27 29 0 0 0
SMALL
GASTEIGER

@<TRIPOS>ATOM
      1 C         141.4024  141.7656  165.5385 C.3     1  UNL1        0.4076
      2 N         141.2976  141.7400  164.0424 N.ar    1  UNL1       -0.1706
      3 C         140.6692  142.8913  163.3148 C.ar    1  UNL1        0.2030
      4 C         140.5644  142.8657  161.8187 C.ar    1  UNL1        0.0646
      5 C         141.0880  141.6888  161.0502 C.ar    1  UNL1        0.0115
      6 C         141.7164  140.5374  161.7778 C.ar    1  UNL1        0.0646
      7 C         141.8212  140.5630  163.2739 C.ar    1  UNL1        0.2030
      8 C         140.1456  144.0683  164.0833 C.3     1  UNL1        0.1006
      9 C         138.6700  144.3322  164.1376 C.3     1  UNL1        0.0584
     10 C         137.7294  143.2467  164.5700 C.3     1  UNL1        0.2060
     11 O         137.2773  142.2098  163.5850 O.3     1  UNL1       -0.4754
     12 C         137.8204  140.8138  163.6633 C.ar    1  UNL1        0.1386
     13 C         138.0007  140.0078  162.4111 C.ar    1  UNL1        0.0369
     14 C         138.5439  138.6119  162.4893 C.ar    1  UNL1        0.0031
     15 C         138.9068  138.0218  163.8197 C.ar    1  UNL1        0.0002
     16 C         138.7266  138.8277  165.0719 C.ar    1  UNL1        0.0031
     17 C         138.1834  140.2237  164.9937 C.ar    1  UNL1        0.0369
     18 C         142.4496  139.4116  164.0015 C.3     1  UNL1        0.1006
     19 C         143.8700  139.0265  163.7115 C.3     1  UNL1        0.0584
     20 C         144.9856  139.6014  164.5330 C.3     1  UNL1        0.2060
     21 O         145.7848  140.7573  164.0084 O.3     1  UNL1       -0.4754
     22 C         145.1163  142.0747  163.7483 C.ar    1  UNL1        0.1386
     23 C         144.7382  142.9634  164.8961 C.ar    1  UNL1        0.0369
     24 C         144.0697  144.2807  164.6361 C.ar    1  UNL1        0.0031
     25 C         143.7793  144.7094  163.2283 C.ar    1  UNL1        0.0002
     26 C         144.1574  143.8208  162.0806 C.ar    1  UNL1        0.0031
     27 C         144.8259  142.5034  162.3406 C.ar    1  UNL1        0.0369
@<TRIPOS>UNITY_ATOM_ATTR
2 1
charge 1
@<TRIPOS>BOND
     1     1     2    1
     2     2     3   ar
     3     3     8    1
     4     8     9    1
     5     9    10    1
     6    10    11    1
     7    11    12    1
     8    12    13   ar
     9    13    14   ar
    10    14    15   ar
    11    15    16   ar
    12    16    17   ar
    13     3     4   ar
    14     4     5   ar
    15     5     6   ar
    16     6     7   ar
    17     7    18    1
    18    18    19    1
    19    19    20    1
    20    20    21    1
    21    21    22    1
    22    22    23   ar
    23    23    24   ar
    24    24    25   ar
    25    25    26   ar
    26    26    27   ar
    27     7     2   ar
    28    27    22   ar
    29    17    12   ar
@<TRIPOS>MOLECULE
*****
 27 29 0 0 0
SMALL
GASTEIGER

@<TRIPOS>ATOM
      1 C         139.8727  143.5230  164.6603 C.3     1  UNL1        0.4076
      2 N         141.3101  143.3401  165.0483 N.ar    1  UNL1       -0.1706
      3 C         141.6611  142.5567  166.2783 C.ar    1  UNL1        0.2030
      4 C         143.0985  142.3739  166.6663 C.ar    1  UNL1        0.0646
      5 C         144.1848  142.9745  165.8243 C.ar    1  UNL1        0.0115
      6 C         143.8338  143.7580  164.5943 C.ar    1  UNL1        0.0646
      7 C         142.3964  143.9408  164.2063 C.ar    1  UNL1        0.2030
      8 C         140.5747  141.9560  167.1204 C.3     1  UNL1        0.1006
      9 C         140.5951  140.4900  167.4369 C.3     1  UNL1        0.0584
     10 C         139.4317  139.8588  168.1429 C.3     1  UNL1        0.2060
     11 O         138.3185  139.2410  167.3498 O.3     1  UNL1       -0.4754
     12 C         138.4470  139.0984  165.8621 C.ar    1  UNL1        0.1386
     13 C         138.0938  140.2476  164.9652 C.ar    1  UNL1        0.0369
     14 C         138.2223  140.1050  163.4775 C.ar    1  UNL1        0.0031
     15 C         138.7041  138.8131  162.8868 C.ar    1  UNL1        0.0002
     16 C         139.0573  137.6639  163.7837 C.ar    1  UNL1        0.0031
     17 C         138.9288  137.8065  165.2714 C.ar    1  UNL1        0.0369
     18 C         142.0454  144.7243  162.9762 C.3     1  UNL1        0.1006
     19 C         142.2110  144.1051  161.6200 C.3     1  UNL1        0.0584
     20 C         141.9317  142.6446  161.4232 C.3     1  UNL1        0.2060
     21 O         143.0628  141.6594  161.4135 O.3     1  UNL1       -0.4754
     22 C         143.3018  140.7801  162.6051 C.ar    1  UNL1        0.1386
     23 C         144.7036  140.4784  163.0454 C.ar    1  UNL1        0.0369
     24 C         144.9426  139.5991  164.2369 C.ar    1  UNL1        0.0031
     25 C         143.7798  139.0215  164.9880 C.ar    1  UNL1        0.0002
     26 C         142.3780  139.3232  164.5477 C.ar    1  UNL1        0.0031
     27 C         142.1390  140.2025  163.3562 C.ar    1  UNL1        0.0369
@<TRIPOS>UNITY_ATOM_ATTR
2 1
charge 1
@<TRIPOS>BOND
     1     1     2    1
     2     2     3   ar
     3     3     8    1
     4     8     9    1
     5     9    10    1
     6    10    11    1
     7    11    12    1
     8    12    13   ar
     9    13    14   ar
    10    14    15   ar
    11    15    16   ar
    12    16    17   ar
    13     3     4   ar
    14     4     5   ar
    15     5     6   ar
    16     6     7   ar
    17     7    18    1
    18    18    19    1
    19    19    20    1
    20    20    21    1
    21    21    22    1
    22    22    23   ar
    23    23    24   ar
    24    24    25   ar
    25    25    26   ar
    26    26    27   ar
    27     7     2   ar
    28    27    22   ar
    29    17    12   ar
@<TRIPOS>MOLECULE
*****
 27 29 0 0 0
SMALL
GASTEIGER

@<TRIPOS>ATOM
      1 C         141.3134  141.7197  162.4253 C.3     1  UNL1        0.4076
      2 N         142.2912  142.4537  163.2943 N.ar    1  UNL1       -0.1706
      3 C         143.0957  141.7055  164.3155 C.ar    1  UNL1        0.2030
      4 C         144.0736  142.4394  165.1845 C.ar    1  UNL1        0.0646
      5 C         144.2470  143.9216  165.0322 C.ar    1  UNL1        0.0115
      6 C         143.4425  144.6697  164.0109 C.ar    1  UNL1        0.0646
      7 C         142.4646  143.9358  163.1420 C.ar    1  UNL1        0.2030
      8 C         142.9224  140.2233  164.4678 C.3     1  UNL1        0.1006
      9 C         143.6298  139.4950  165.5719 C.3     1  UNL1        0.0584
     10 C         142.8381  138.7942  166.6359 C.3     1  UNL1        0.2060
     11 O         143.0671  139.1243  168.0810 O.3     1  UNL1       -0.4754
     12 C         142.3146  140.2532  168.7208 C.ar    1  UNL1        0.1386
     13 C         142.9307  141.6188  168.7942 C.ar    1  UNL1        0.0369
     14 C         142.1783  142.7477  169.4339 C.ar    1  UNL1        0.0031
     15 C         140.8096  142.5110  170.0003 C.ar    1  UNL1        0.0002
     16 C         140.1935  141.1454  169.9270 C.ar    1  UNL1        0.0031
     17 C         140.9460  140.0164  169.2872 C.ar    1  UNL1        0.0369
     18 C         141.6601  144.6841  162.1207 C.3     1  UNL1        0.1006
     19 C         140.5488  145.5911  162.5591 C.3     1  UNL1        0.0584
     20 C         139.1291  145.1080  162.5263 C.3     1  UNL1        0.2060
     21 O         138.4227  144.7682  163.8051 O.3     1  UNL1       -0.4754
     22 C         138.7779  143.5143  164.5479 C.ar    1  UNL1        0.1386
     23 C         138.0741  142.2287  164.2287 C.ar    1  UNL1        0.0369
     24 C         138.4292  140.9748  164.9714 C.ar    1  UNL1        0.0031
     25 C         139.4881  141.0066  166.0333 C.ar    1  UNL1        0.0002
     26 C         140.1919  142.2922  166.3525 C.ar    1  UNL1        0.0031
     27 C         139.8367  143.5461  165.6098 C.ar    1  UNL1        0.0369
@<TRIPOS>UNITY_ATOM_ATTR
2 1
charge 1
@<TRIPOS>BOND
     1     1     2    1
     2     2     3   ar
     3     3     8    1
     4     8     9    1
     5     9    10    1
     6    10    11    1
     7    11    12    1
     8    12    13   ar
     9    13    14   ar
    10    14    15   ar
    11    15    16   ar
    12    16    17   ar
    13     3     4   ar
    14     4     5   ar
    15     5     6   ar
    16     6     7   ar
    17     7    18    1
    18    18    19    1
    19    19    20    1
    20    20    21    1
    21    21    22    1
    22    22    23   ar
    23    23    24   ar
    24    24    25   ar
    25    25    26   ar
    26    26    27   ar
    27     7     2   ar
    28    27    22   ar
    29    17    12   ar
@<TRIPOS>MOLECULE
*****
 27 29 0 0 0
SMALL
GASTEIGER

@<TRIPOS>ATOM
      1 C         140.6467  143.3848  161.1503 C.3     1  UNL1        0.4076
      2 N         139.8338  143.7008  162.3707 N.ar    1  UNL1       -0.1706
      3 C         140.3401  144.6965  163.3718 C.ar    1  UNL1        0.2030
      4 C         139.5272  145.0125  164.5922 C.ar    1  UNL1        0.0646
      5 C         138.2081  144.3330  164.8115 C.ar    1  UNL1        0.0115
      6 C         137.7019  143.3373  163.8103 C.ar    1  UNL1        0.0646
      7 C         138.5147  143.0213  162.5899 C.ar    1  UNL1        0.2030
      8 C         141.6592  145.3761  163.1526 C.3     1  UNL1        0.1006
      9 C         142.8253  145.0541  164.0394 C.3     1  UNL1        0.0584
     10 C         143.6544  143.8324  163.7743 C.3     1  UNL1        0.2060
     11 O         143.6073  142.6732  164.7249 O.3     1  UNL1       -0.4754
     12 C         142.2878  142.1759  165.2364 C.ar    1  UNL1        0.1386
     13 C         141.8334  142.5407  166.6187 C.ar    1  UNL1        0.0369
     14 C         140.5140  142.0435  167.1301 C.ar    1  UNL1        0.0031
     15 C         139.6487  141.1814  166.2594 C.ar    1  UNL1        0.0002
     16 C         140.1030  140.8166  164.8772 C.ar    1  UNL1        0.0031
     17 C         141.4225  141.3139  164.3656 C.ar    1  UNL1        0.0369
     18 C         138.0084  142.0256  161.5887 C.3     1  UNL1        0.1006
     19 C         137.5916  140.6563  162.0376 C.3     1  UNL1        0.0584
     20 C         137.6491  139.5033  161.0799 C.3     1  UNL1        0.2060
     21 O         137.9119  138.1173  161.5898 O.3     1  UNL1       -0.4754
     22 C         139.0574  137.8670  162.5254 C.ar    1  UNL1        0.1386
     23 C         138.7943  137.5920  163.9763 C.ar    1  UNL1        0.0369
     24 C         139.9397  137.3417  164.9119 C.ar    1  UNL1        0.0031
     25 C         141.3482  137.3664  164.3966 C.ar    1  UNL1        0.0002
     26 C         141.6112  137.6414  162.9457 C.ar    1  UNL1        0.0031
     27 C         140.4658  137.8917  162.0101 C.ar    1  UNL1        0.0369
@<TRIPOS>UNITY_ATOM_ATTR
2 1
charge 1
@<TRIPOS>BOND
     1     1     2    1
     2     2     3   ar
     3     3     8    1
     4     8     9    1
     5     9    10    1
     6    10    11    1
     7    11    12    1
     8    12    13   ar
     9    13    14   ar
    10    14    15   ar
    11    15    16   ar
    12    16    17   ar
    13     3     4   ar
    14     4     5   ar
    15     5     6   ar
    16     6     7   ar
    17     7    18    1
    18    18    19    1
    19    19    20    1
    20    20    21    1
    21    21    22    1
    22    22    23   ar
    23    23    24   ar
    24    24    25   ar
    25    25    26   ar
    26    26    27   ar
    27     7     2   ar
    28    27    22   ar
    29    17    12   ar
@<TRIPOS>MOLECULE
*****
 27 29 0 0 0
SMALL
GASTEIGER

@<TRIPOS>ATOM
      1 C         141.2010  138.6302  160.7438 C.3     1  UNL1        0.4076
      2 N         140.8188  138.4122  162.1778 N.ar    1  UNL1       -0.1706
      3 C         141.8713  138.4353  163.2463 C.ar    1  UNL1        0.2030
      4 C         141.4891  138.2173  164.6803 C.ar    1  UNL1        0.0646
      5 C         140.0545  137.9761  165.0458 C.ar    1  UNL1        0.0115
      6 C         139.0020  137.9530  163.9773 C.ar    1  UNL1        0.0646
      7 C         139.3842  138.1711  162.5433 C.ar    1  UNL1        0.2030
      8 C         143.3060  138.6764  162.8808 C.3     1  UNL1        0.1006
      9 C         144.2541  139.2407  163.8970 C.3     1  UNL1        0.0584
     10 C         144.7267  140.6592  163.7754 C.3     1  UNL1        0.2060
     11 O         144.0631  141.7418  164.5739 O.3     1  UNL1       -0.4754
     12 C         143.1739  142.7389  163.8919 C.ar    1  UNL1        0.1386
     13 C         143.1910  144.1761  164.3212 C.ar    1  UNL1        0.0369
     14 C         142.3018  145.1731  163.6391 C.ar    1  UNL1        0.0031
     15 C         141.3956  144.7331  162.5278 C.ar    1  UNL1        0.0002
     16 C         141.3785  143.2960  162.0985 C.ar    1  UNL1        0.0031
     17 C         142.2677  142.2988  162.7806 C.ar    1  UNL1        0.0369
     18 C         138.3317  138.1479  161.4747 C.3     1  UNL1        0.1006
     19 C         137.4681  139.3530  161.2465 C.3     1  UNL1        0.0584
     20 C         138.0013  140.7241  161.5391 C.3     1  UNL1        0.2060
     21 O         137.2609  141.6328  162.4751 O.3     1  UNL1       -0.4754
     22 C         138.0048  142.3729  163.5470 C.ar    1  UNL1        0.1386
     23 C         138.9603  141.6388  164.4403 C.ar    1  UNL1        0.0369
     24 C         139.7042  142.3789  165.5121 C.ar    1  UNL1        0.0031
     25 C         139.4925  143.8531  165.6907 C.ar    1  UNL1        0.0002
     26 C         138.5370  144.5872  164.7974 C.ar    1  UNL1        0.0031
     27 C         137.7931  143.8471  163.7255 C.ar    1  UNL1        0.0369
@<TRIPOS>UNITY_ATOM_ATTR
2 1
charge 1
@<TRIPOS>BOND
     1     1     2    1
     2     2     3   ar
     3     3     8    1
     4     8     9    1
     5     9    10    1
     6    10    11    1
     7    11    12    1
     8    12    13   ar
     9    13    14   ar
    10    14    15   ar
    11    15    16   ar
    12    16    17   ar
    13     3     4   ar
    14     4     5   ar
    15     5     6   ar
    16     6     7   ar
    17     7    18    1
    18    18    19    1
    19    19    20    1
    20    20    21    1
    21    21    22    1
    22    22    23   ar
    23    23    24   ar
    24    24    25   ar
    25    25    26   ar
    26    26    27   ar
    27     7     2   ar
    28    27    22   ar
    29    17    12   ar
