@<TRIPOS>MOLECULE
*****
 26 28 0 0 0
SMALL
GASTEIGER

@<TRIPOS>ATOM
      1 N         140.5076  138.0414  161.7826 N.pl3   1  UNL1       -0.1874
      2 C         139.3016  138.0428  160.8905 C.3     1  UNL1        0.2536
      3 C         142.5492  138.0107  160.1762 C.2     1  UNL1        0.0903
      4 C         141.7942  138.6471  161.3052 C.2     1  UNL1        0.2717
      5 N         142.3257  139.8892  161.9570 N.pl3   1  UNL1       -0.1925
      6 C         141.4391  141.0879  162.1216 C.3     1  UNL1        0.2195
      7 C         141.9705  142.3300  162.7734 C.3     1  UNL1        0.1236
      8 N         143.3885  142.3733  163.2605 N.3     1  UNL1       -0.2670
      9 C         144.2751  141.1746  163.0959 C.3     1  UNL1        0.1236
     10 C         143.7437  139.9326  162.4441 C.3     1  UNL1        0.2195
     11 C         143.9200  143.6154  163.9123 C.3     1  UNL1        0.0578
     12 C         143.8557  144.9281  163.1893 C.3     1  UNL1        0.0173
     13 C         144.5158  143.5448  165.2870 C.3     1  UNL1        0.0173
     14 C         140.4269  137.4345  163.1519 C.3     1  UNL1        0.2294
     15 C         140.3320  138.3187  164.3599 C.ar    1  UNL1        0.0243
     16 C         141.5479  138.5729  165.2006 C.ar    1  UNL1       -0.0003
     17 C         141.4530  139.4572  166.4086 C.ar    1  UNL1       -0.0002
     18 C         140.1421  140.0872  166.7757 C.ar    1  UNL1       -0.0000
     19 C         138.9262  139.8330  165.9349 C.ar    1  UNL1       -0.0002
     20 C         139.0212  138.9488  164.7270 C.ar    1  UNL1       -0.0003
     21 C         140.0472  140.9714  167.9837 C.ar    1  UNL1       -0.0000
     22 C         139.3671  140.4750  169.2250 C.ar    1  UNL1       -0.0000
     23 C         139.2722  141.3593  170.4330 C.ar    1  UNL1        0.0000
     24 C         139.8575  142.7400  170.3995 C.ar    1  UNL1        0.0000
     25 C         140.5376  143.2364  169.1581 C.ar    1  UNL1        0.0000
     26 C         140.6325  142.3521  167.9502 C.ar    1  UNL1       -0.0000
@<TRIPOS>BOND
     1     3     4    2
     2     4     1    1
     3     1     2    1
     4     1    14    1
     5    14    15    1
     6    15    16   ar
     7    16    17   ar
     8    17    18   ar
     9    18    21    1
    10    21    22   ar
    11    22    23   ar
    12    23    24   ar
    13    24    25   ar
    14    25    26   ar
    15    18    19   ar
    16    19    20   ar
    17     4     5    1
    18     5     6    1
    19     6     7    1
    20     7     8    1
    21     8    11    1
    22    11    12    1
    23    11    13    1
    24     8     9    1
    25     9    10    1
    26    20    15   ar
    27    10     5    1
    28    26    21   ar
@<TRIPOS>MOLECULE
*****
 26 28 0 0 0
SMALL
GASTEIGER

@<TRIPOS>ATOM
      1 N         138.1017  140.9541  161.7694 N.pl3   1  UNL1       -0.1874
      2 C         137.5160  139.6708  161.2591 C.3     1  UNL1        0.2536
      3 C         139.1318  142.0026  159.6272 C.2     1  UNL1        0.0903
      4 C         139.2652  141.5815  161.0606 C.2     1  UNL1        0.2717
      5 N         140.5623  141.7879  161.7854 N.pl3   1  UNL1       -0.1925
      6 C         141.3150  140.6086  162.3264 C.3     1  UNL1        0.2195
      7 C         142.6120  140.8149  163.0511 C.3     1  UNL1        0.1236
      8 N         143.1562  142.2005  163.2348 N.3     1  UNL1       -0.2670
      9 C         142.4035  143.3798  162.6937 C.3     1  UNL1        0.1236
     10 C         141.1066  143.1735  161.9690 C.3     1  UNL1        0.2195
     11 C         144.4533  142.4069  163.9595 C.3     1  UNL1        0.0578
     12 C         144.5308  143.3842  165.0947 C.3     1  UNL1        0.0173
     13 C         145.6727  141.6359  163.5490 C.3     1  UNL1        0.0173
     14 C         137.5238  141.6098  162.9884 C.3     1  UNL1        0.2294
     15 C         138.3852  141.8431  164.1941 C.ar    1  UNL1        0.0243
     16 C         138.7695  143.2401  164.5823 C.ar    1  UNL1       -0.0003
     17 C         139.6308  143.4734  165.7879 C.ar    1  UNL1       -0.0002
     18 C         140.1078  142.3097  166.6055 C.ar    1  UNL1       -0.0000
     19 C         139.7235  140.9127  166.2173 C.ar    1  UNL1       -0.0002
     20 C         138.8621  140.6795  165.0117 C.ar    1  UNL1       -0.0003
     21 C         140.9692  142.5431  167.8112 C.ar    1  UNL1       -0.0000
     22 C         140.4192  143.2838  168.9938 C.ar    1  UNL1       -0.0000
     23 C         141.2805  143.5172  170.1995 C.ar    1  UNL1        0.0000
     24 C         142.6919  143.0097  170.2225 C.ar    1  UNL1        0.0000
     25 C         143.2419  142.2689  169.0398 C.ar    1  UNL1        0.0000
     26 C         142.3806  142.0356  167.8341 C.ar    1  UNL1       -0.0000
@<TRIPOS>BOND
     1     3     4    2
     2     4     1    1
     3     1     2    1
     4     1    14    1
     5    14    15    1
     6    15    16   ar
     7    16    17   ar
     8    17    18   ar
     9    18    21    1
    10    21    22   ar
    11    22    23   ar
    12    23    24   ar
    13    24    25   ar
    14    25    26   ar
    15    18    19   ar
    16    19    20   ar
    17     4     5    1
    18     5     6    1
    19     6     7    1
    20     7     8    1
    21     8    11    1
    22    11    12    1
    23    11    13    1
    24     8     9    1
    25     9    10    1
    26    20    15   ar
    27    10     5    1
    28    26    21   ar
@<TRIPOS>MOLECULE
*****
 26 28 0 0 0
SMALL
GASTEIGER

@<TRIPOS>ATOM
      1 N         141.1761  137.9273  161.7645 N.pl3   1  UNL1       -0.1874
      2 C         142.5194  137.6341  161.1647 C.3     1  UNL1        0.2536
      3 C         139.5959  138.3986  159.7568 C.2     1  UNL1        0.0903
      4 C         140.2177  138.8338  161.0506 C.2     1  UNL1        0.2717
      5 N         139.8811  140.1756  161.6306 N.pl3   1  UNL1       -0.1925
      6 C         140.9760  141.1467  161.9591 C.3     1  UNL1        0.2195
      7 C         140.6395  142.4885  162.5391 C.3     1  UNL1        0.1236
      8 N         139.2079  142.8591  162.7905 N.3     1  UNL1       -0.2670
      9 C         138.1130  141.8880  162.4620 C.3     1  UNL1        0.1236
     10 C         138.4495  140.5463  161.8820 C.3     1  UNL1        0.2195
     11 C         138.8713  144.2009  163.3705 C.3     1  UNL1        0.0578
     12 C         138.1808  144.2919  164.6990 C.3     1  UNL1        0.0173
     13 C         139.2253  145.4517  162.6219 C.3     1  UNL1        0.0173
     14 C         140.7912  137.3139  163.0781 C.3     1  UNL1        0.2294
     15 C         140.6244  138.1811  164.2906 C.ar    1  UNL1        0.0243
     16 C         139.2719  138.3386  164.9198 C.ar    1  UNL1       -0.0003
     17 C         139.1051  139.2058  166.1322 C.ar    1  UNL1       -0.0002
     18 C         140.2908  139.9156  166.7155 C.ar    1  UNL1       -0.0000
     19 C         141.6433  139.7582  166.0864 C.ar    1  UNL1       -0.0002
     20 C         141.8101  138.8909  164.8739 C.ar    1  UNL1       -0.0003
     21 C         140.1240  140.7828  167.9280 C.ar    1  UNL1       -0.0000
     22 C         139.3931  140.2602  169.1291 C.ar    1  UNL1       -0.0000
     23 C         139.2262  141.1275  170.3416 C.ar    1  UNL1        0.0000
     24 C         139.7903  142.5174  170.3530 C.ar    1  UNL1        0.0000
     25 C         140.5212  143.0399  169.1518 C.ar    1  UNL1        0.0000
     26 C         140.6880  142.1727  167.9394 C.ar    1  UNL1       -0.0000
@<TRIPOS>BOND
     1     3     4    2
     2     4     1    1
     3     1     2    1
     4     1    14    1
     5    14    15    1
     6    15    16   ar
     7    16    17   ar
     8    17    18   ar
     9    18    21    1
    10    21    22   ar
    11    22    23   ar
    12    23    24   ar
    13    24    25   ar
    14    25    26   ar
    15    18    19   ar
    16    19    20   ar
    17     4     5    1
    18     5     6    1
    19     6     7    1
    20     7     8    1
    21     8    11    1
    22    11    12    1
    23    11    13    1
    24     8     9    1
    25     9    10    1
    26    20    15   ar
    27    10     5    1
    28    26    21   ar
@<TRIPOS>MOLECULE
*****
 26 28 0 0 0
SMALL
GASTEIGER

@<TRIPOS>ATOM
      1 N         144.2493  140.5039  161.4841 N.pl3   1  UNL1       -0.1874
      2 C         144.1438  139.1590  160.8282 C.3     1  UNL1        0.2536
      3 C         143.9873  142.2462  159.5747 C.2     1  UNL1        0.0903
      4 C         143.5394  141.6850  160.8917 C.2     1  UNL1        0.2717
      5 N         142.3815  142.3050  161.6163 N.pl3   1  UNL1       -0.1925
      6 C         141.2031  141.4628  162.0063 C.3     1  UNL1        0.2195
      7 C         140.0452  142.0827  162.7308 C.3     1  UNL1        0.1236
      8 N         140.0657  143.5447  163.0654 N.3     1  UNL1       -0.2670
      9 C         141.2442  144.3869  162.6754 C.3     1  UNL1        0.1236
     10 C         142.4020  143.7670  161.9508 C.3     1  UNL1        0.2195
     11 C         138.9078  144.1647  163.7900 C.3     1  UNL1        0.0578
     12 C         137.5466  144.1735  163.1599 C.3     1  UNL1        0.0173
     13 C         139.1112  144.7758  165.1447 C.3     1  UNL1        0.0173
     14 C         145.0648  140.6677  162.7323 C.3     1  UNL1        0.2294
     15 C         144.4024  141.0865  164.0114 C.ar    1  UNL1        0.0243
     16 C         143.5096  140.1282  164.7424 C.ar    1  UNL1       -0.0003
     17 C         142.8473  140.5470  166.0214 C.ar    1  UNL1       -0.0002
     18 C         143.0778  141.9242  166.5694 C.ar    1  UNL1       -0.0000
     19 C         143.9706  142.8825  165.8383 C.ar    1  UNL1       -0.0002
     20 C         144.6329  142.4637  164.5593 C.ar    1  UNL1       -0.0003
     21 C         142.4155  142.3430  167.8485 C.ar    1  UNL1       -0.0000
     22 C         143.2123  142.4143  169.1173 C.ar    1  UNL1       -0.0000
     23 C         142.5499  142.8332  170.3964 C.ar    1  UNL1        0.0000
     24 C         141.0908  143.1807  170.4065 C.ar    1  UNL1        0.0000
     25 C         140.2940  143.1093  169.1376 C.ar    1  UNL1        0.0000
     26 C         140.9563  142.6905  167.8586 C.ar    1  UNL1       -0.0000
@<TRIPOS>BOND
     1     3     4    2
     2     4     1    1
     3     1     2    1
     4     1    14    1
     5    14    15    1
     6    15    16   ar
     7    16    17   ar
     8    17    18   ar
     9    18    21    1
    10    21    22   ar
    11    22    23   ar
    12    23    24   ar
    13    24    25   ar
    14    25    26   ar
    15    18    19   ar
    16    19    20   ar
    17     4     5    1
    18     5     6    1
    19     6     7    1
    20     7     8    1
    21     8    11    1
    22    11    12    1
    23    11    13    1
    24     8     9    1
    25     9    10    1
    26    20    15   ar
    27    10     5    1
    28    26    21   ar
@<TRIPOS>MOLECULE
*****
 26 28 0 0 0
SMALL
GASTEIGER

@<TRIPOS>ATOM
      1 N         138.5220  139.0952  160.6563 N.pl3   1  UNL1       -0.1874
      2 C         137.5251  139.9659  159.9505 C.3     1  UNL1        0.2536
      3 C         140.0790  138.4151  158.6908 C.2     1  UNL1        0.0903
      4 C         139.9007  138.9233  160.0908 C.2     1  UNL1        0.2717
      5 N         141.1010  139.2596  160.9252 N.pl3   1  UNL1       -0.1925
      6 C         141.9551  138.1620  161.4871 C.3     1  UNL1        0.2195
      7 C         143.1553  138.4982  162.3216 C.3     1  UNL1        0.1236
      8 N         143.5014  139.9320  162.5941 N.3     1  UNL1       -0.2670
      9 C         142.6473  141.0296  162.0323 C.3     1  UNL1        0.1236
     10 C         141.4470  140.6934  161.1978 C.3     1  UNL1        0.2195
     11 C         144.7017  140.2683  163.4286 C.3     1  UNL1        0.0578
     12 C         145.1283  139.3484  164.5339 C.3     1  UNL1        0.0173
     13 C         145.4753  141.5246  163.1577 C.3     1  UNL1        0.0173
     14 C         138.1404  138.3965  161.9276 C.3     1  UNL1        0.2294
     15 C         138.5202  138.9891  163.2522 C.ar    1  UNL1        0.0243
     16 C         139.3710  138.2062  164.2078 C.ar    1  UNL1       -0.0003
     17 C         139.7508  138.7988  165.5324 C.ar    1  UNL1       -0.0002
     18 C         139.2796  140.1742  165.9014 C.ar    1  UNL1       -0.0000
     19 C         138.4287  140.9571  164.9459 C.ar    1  UNL1       -0.0002
     20 C         138.0490  140.3645  163.6213 C.ar    1  UNL1       -0.0003
     21 C         139.6594  140.7668  167.2261 C.ar    1  UNL1       -0.0000
     22 C         140.3618  142.0910  167.2817 C.ar    1  UNL1       -0.0000
     23 C         140.7416  142.6835  168.6064 C.ar    1  UNL1        0.0000
     24 C         140.4189  141.9518  169.8754 C.ar    1  UNL1        0.0000
     25 C         139.7165  140.6276  169.8198 C.ar    1  UNL1        0.0000
     26 C         139.3367  140.0351  168.4952 C.ar    1  UNL1       -0.0000
@<TRIPOS>BOND
     1     3     4    2
     2     4     1    1
     3     1     2    1
     4     1    14    1
     5    14    15    1
     6    15    16   ar
     7    16    17   ar
     8    17    18   ar
     9    18    21    1
    10    21    22   ar
    11    22    23   ar
    12    23    24   ar
    13    24    25   ar
    14    25    26   ar
    15    18    19   ar
    16    19    20   ar
    17     4     5    1
    18     5     6    1
    19     6     7    1
    20     7     8    1
    21     8    11    1
    22    11    12    1
    23    11    13    1
    24     8     9    1
    25     9    10    1
    26    20    15   ar
    27    10     5    1
    28    26    21   ar
@<TRIPOS>MOLECULE
*****
 26 28 0 0 0
SMALL
GASTEIGER

@<TRIPOS>ATOM
      1 N         139.2752  138.3834  162.1324 N.pl3   1  UNL1       -0.1874
      2 C         137.8381  138.4275  161.7045 C.3     1  UNL1        0.2536
      3 C         140.5294  138.6641  159.8745 C.2     1  UNL1        0.0903
      4 C         140.3251  139.0646  161.3055 C.2     1  UNL1        0.2717
      5 N         141.1708  140.1462  161.9098 N.pl3   1  UNL1       -0.1925
      6 C         142.6651  140.0148  161.9153 C.3     1  UNL1        0.2195
      7 C         143.5107  141.0963  162.5195 C.3     1  UNL1        0.1236
      8 N         142.8622  142.3092  163.1181 N.3     1  UNL1       -0.2670
      9 C         141.3680  142.4405  163.1126 C.3     1  UNL1        0.1236
     10 C         140.5223  141.3590  162.5084 C.3     1  UNL1        0.2195
     11 C         143.7079  143.3908  163.7224 C.3     1  UNL1        0.0578
     12 C         143.8378  144.7156  163.0310 C.3     1  UNL1        0.0173
     13 C         144.4236  143.1475  165.0180 C.3     1  UNL1        0.0173
     14 C         139.6622  137.6583  163.3871 C.3     1  UNL1        0.2294
     15 C         139.8409  138.4184  164.6679 C.ar    1  UNL1        0.0243
     16 C         138.6414  138.8344  165.4667 C.ar    1  UNL1       -0.0003
     17 C         138.8200  139.5945  166.7474 C.ar    1  UNL1       -0.0002
     18 C         140.1982  139.9385  167.2294 C.ar    1  UNL1       -0.0000
     19 C         141.3977  139.5225  166.4306 C.ar    1  UNL1       -0.0002
     20 C         141.2190  138.7624  165.1499 C.ar    1  UNL1       -0.0003
     21 C         140.3768  140.6986  168.5102 C.ar    1  UNL1       -0.0000
     22 C         140.3526  142.1983  168.5020 C.ar    1  UNL1       -0.0000
     23 C         140.5312  142.9584  169.7828 C.ar    1  UNL1        0.0000
     24 C         140.7341  142.2187  171.0718 C.ar    1  UNL1        0.0000
     25 C         140.7583  140.7188  171.0801 C.ar    1  UNL1        0.0000
     26 C         140.5797  139.9588  169.7993 C.ar    1  UNL1       -0.0000
@<TRIPOS>BOND
     1     3     4    2
     2     4     1    1
     3     1     2    1
     4     1    14    1
     5    14    15    1
     6    15    16   ar
     7    16    17   ar
     8    17    18   ar
     9    18    21    1
    10    21    22   ar
    11    22    23   ar
    12    23    24   ar
    13    24    25   ar
    14    25    26   ar
    15    18    19   ar
    16    19    20   ar
    17     4     5    1
    18     5     6    1
    19     6     7    1
    20     7     8    1
    21     8    11    1
    22    11    12    1
    23    11    13    1
    24     8     9    1
    25     9    10    1
    26    20    15   ar
    27    10     5    1
    28    26    21   ar
@<TRIPOS>MOLECULE
*****
 26 28 0 0 0
SMALL
GASTEIGER

@<TRIPOS>ATOM
      1 N         141.7359  144.2894  161.1985 N.pl3   1  UNL1       -0.1874
      2 C         140.9001  145.1225  160.2725 C.3     1  UNL1        0.2536
      3 C         143.0375  142.7059  159.6022 C.2     1  UNL1        0.0903
      4 C         142.1498  142.9053  160.7947 C.2     1  UNL1        0.2717
      5 N         141.6759  141.7206  161.5834 N.pl3   1  UNL1       -0.1925
      6 C         140.2137  141.5460  161.8689 C.3     1  UNL1        0.2195
      7 C         139.7398  140.3614  162.6576 C.3     1  UNL1        0.1236
      8 N         140.7280  139.3514  163.1608 N.3     1  UNL1       -0.2670
      9 C         142.1902  139.5261  162.8754 C.3     1  UNL1        0.1236
     10 C         142.6641  140.7107  162.0867 C.3     1  UNL1        0.2195
     11 C         140.2541  138.1668  163.9496 C.3     1  UNL1        0.0578
     12 C         141.1394  136.9658  164.1040 C.3     1  UNL1        0.0173
     13 C         138.8949  138.1832  164.5839 C.3     1  UNL1        0.0173
     14 C         142.1577  144.8403  162.5283 C.3     1  UNL1        0.2294
     15 C         141.7062  144.1734  163.7939 C.ar    1  UNL1        0.0243
     16 C         140.2965  144.3522  164.2741 C.ar    1  UNL1       -0.0003
     17 C         139.8451  143.6853  165.5396 C.ar    1  UNL1       -0.0002
     18 C         140.8034  142.8396  166.3248 C.ar    1  UNL1       -0.0000
     19 C         142.2131  142.6609  165.8445 C.ar    1  UNL1       -0.0002
     20 C         142.6645  143.3278  164.5791 C.ar    1  UNL1       -0.0003
     21 C         140.3519  142.1727  167.5903 C.ar    1  UNL1       -0.0000
     22 C         139.8700  140.7526  167.5590 C.ar    1  UNL1       -0.0000
     23 C         139.4185  140.0857  168.8246 C.ar    1  UNL1        0.0000
     24 C         139.4490  140.8390  170.1213 C.ar    1  UNL1        0.0000
     25 C         139.9309  142.2592  170.1526 C.ar    1  UNL1        0.0000
     26 C         140.3824  142.9260  168.8871 C.ar    1  UNL1       -0.0000
@<TRIPOS>BOND
     1     3     4    2
     2     4     1    1
     3     1     2    1
     4     1    14    1
     5    14    15    1
     6    15    16   ar
     7    16    17   ar
     8    17    18   ar
     9    18    21    1
    10    21    22   ar
    11    22    23   ar
    12    23    24   ar
    13    24    25   ar
    14    25    26   ar
    15    18    19   ar
    16    19    20   ar
    17     4     5    1
    18     5     6    1
    19     6     7    1
    20     7     8    1
    21     8    11    1
    22    11    12    1
    23    11    13    1
    24     8     9    1
    25     9    10    1
    26    20    15   ar
    27    10     5    1
    28    26    21   ar
@<TRIPOS>MOLECULE
*****
 26 28 0 0 0
SMALL
GASTEIGER

@<TRIPOS>ATOM
      1 N         140.4525  145.2950  161.8615 N.pl3   1  UNL1       -0.1874
      2 C         139.5669  146.4942  161.6950 C.3     1  UNL1        0.2536
      3 C         140.3919  144.1748  159.5181 C.2     1  UNL1        0.0903
      4 C         140.2389  144.0806  161.0073 C.2     1  UNL1        0.2717
      5 N         139.8723  142.7720  161.6424 N.pl3   1  UNL1       -0.1925
      6 C         140.9257  141.7294  161.8734 C.3     1  UNL1        0.2195
      7 C         140.5592  140.4208  162.5084 C.3     1  UNL1        0.1236
      8 N         139.1393  140.1549  162.9125 N.3     1  UNL1       -0.2670
      9 C         138.0860  141.1975  162.6814 C.3     1  UNL1        0.1236
     10 C         138.4525  142.5061  162.0464 C.3     1  UNL1        0.2195
     11 C         138.7728  138.8463  163.5476 C.3     1  UNL1        0.0578
     12 C         138.4805  137.6517  162.6888 C.3     1  UNL1        0.0173
     13 C         138.6985  138.7324  165.0414 C.3     1  UNL1        0.0173
     14 C         141.5516  145.3102  162.8820 C.3     1  UNL1        0.2294
     15 C         141.5048  144.3687  164.0488 C.ar    1  UNL1        0.0243
     16 C         142.7440  143.6375  164.4727 C.ar    1  UNL1       -0.0003
     17 C         142.6972  142.6960  165.6394 C.ar    1  UNL1       -0.0002
     18 C         141.4111  142.4856  166.3823 C.ar    1  UNL1       -0.0000
     19 C         140.1719  143.2168  165.9584 C.ar    1  UNL1       -0.0002
     20 C         140.2188  144.1583  164.7917 C.ar    1  UNL1       -0.0003
     21 C         141.3644  141.5440  167.5491 C.ar    1  UNL1       -0.0000
     22 C         142.6304  141.1662  168.2591 C.ar    1  UNL1       -0.0000
     23 C         142.5836  140.2246  169.4259 C.ar    1  UNL1        0.0000
     24 C         141.2707  139.6609  169.8826 C.ar    1  UNL1        0.0000
     25 C         140.0046  140.0388  169.1724 C.ar    1  UNL1        0.0000
     26 C         140.0514  140.9804  168.0057 C.ar    1  UNL1       -0.0000
@<TRIPOS>BOND
     1     3     4    2
     2     4     1    1
     3     1     2    1
     4     1    14    1
     5    14    15    1
     6    15    16   ar
     7    16    17   ar
     8    17    18   ar
     9    18    21    1
    10    21    22   ar
    11    22    23   ar
    12    23    24   ar
    13    24    25   ar
    14    25    26   ar
    15    18    19   ar
    16    19    20   ar
    17     4     5    1
    18     5     6    1
    19     6     7    1
    20     7     8    1
    21     8    11    1
    22    11    12    1
    23    11    13    1
    24     8     9    1
    25     9    10    1
    26    20    15   ar
    27    10     5    1
    28    26    21   ar
@<TRIPOS>MOLECULE
*****
 26 28 0 0 0
SMALL
GASTEIGER

@<TRIPOS>ATOM
      1 N         143.7613  139.4954  162.1685 N.pl3   1  UNL1       -0.1874
      2 C         144.1147  138.9105  160.8331 C.3     1  UNL1        0.2536
      3 C         145.4187  141.4109  162.7460 C.2     1  UNL1        0.0903
      4 C         144.0248  140.9459  162.4453 C.2     1  UNL1        0.2717
      5 N         142.8941  141.9314  162.4214 N.pl3   1  UNL1       -0.1925
      6 C         141.8220  141.8176  161.3784 C.3     1  UNL1        0.2195
      7 C         140.6914  142.8030  161.3545 C.3     1  UNL1        0.1236
      8 N         140.6328  143.9021  162.3735 N.3     1  UNL1       -0.2670
      9 C         141.7049  144.0159  163.4165 C.3     1  UNL1        0.1236
     10 C         142.8355  143.0305  163.4404 C.3     1  UNL1        0.2195
     11 C         139.5021  144.8876  162.3496 C.3     1  UNL1        0.0578
     12 C         139.7171  146.2623  161.7892 C.3     1  UNL1        0.0173
     13 C         138.1565  144.4983  162.8861 C.3     1  UNL1        0.0173
     14 C         143.1447  138.6298  163.2270 C.3     1  UNL1        0.2294
     15 C         142.5380  139.2553  164.4479 C.ar    1  UNL1        0.0243
     16 C         141.1114  139.7181  164.4235 C.ar    1  UNL1       -0.0003
     17 C         140.5048  140.3436  165.6444 C.ar    1  UNL1       -0.0002
     18 C         141.3248  140.5063  166.8898 C.ar    1  UNL1       -0.0000
     19 C         142.7514  140.0436  166.9143 C.ar    1  UNL1       -0.0002
     20 C         143.3580  139.4181  165.6934 C.ar    1  UNL1       -0.0003
     21 C         140.7182  141.1319  168.1108 C.ar    1  UNL1       -0.0000
     22 C         139.8225  140.3230  169.0016 C.ar    1  UNL1       -0.0000
     23 C         139.2158  140.9486  170.2226 C.ar    1  UNL1        0.0000
     24 C         139.5049  142.3829  170.5527 C.ar    1  UNL1        0.0000
     25 C         140.4006  143.1918  169.6619 C.ar    1  UNL1        0.0000
     26 C         141.0073  142.5662  168.4410 C.ar    1  UNL1       -0.0000
@<TRIPOS>BOND
     1     3     4    2
     2     4     1    1
     3     1     2    1
     4     1    14    1
     5    14    15    1
     6    15    16   ar
     7    16    17   ar
     8    17    18   ar
     9    18    21    1
    10    21    22   ar
    11    22    23   ar
    12    23    24   ar
    13    24    25   ar
    14    25    26   ar
    15    18    19   ar
    16    19    20   ar
    17     4     5    1
    18     5     6    1
    19     6     7    1
    20     7     8    1
    21     8    11    1
    22    11    12    1
    23    11    13    1
    24     8     9    1
    25     9    10    1
    26    20    15   ar
    27    10     5    1
    28    26    21   ar
