@<TRIPOS>MOLECULE
*****
 31 35 0 0 0
SMALL
GASTEIGER

@<TRIPOS>ATOM
      1 N         136.6544  137.6009  168.0771 N.pl3   1  UNL1       -0.2464
      2 C         137.7635  138.4319  167.5033 C.2     1  UNL1        0.3157
      3 N         138.3316  138.3102  166.1204 N.2     1  UNL1       -0.0614
      4 C         139.4184  139.3336  165.9741 C.3     1  UNL1        0.2309
      5 C         139.5221  140.0878  167.2666 C.ar    1  UNL1        0.0390
      6 C         140.4156  141.2100  167.7049 C.ar    1  UNL1        0.0008
      7 C         140.2864  141.7749  169.0885 C.ar    1  UNL1        0.0021
      8 C         139.2635  141.2176  170.0336 C.ar    1  UNL1        0.0299
      9 C         138.3700  140.0954  169.5952 C.ar    1  UNL1        0.1470
     10 F         137.3472  139.5381  170.5403 F       1  UNL1       -0.2039
     11 C         138.4992  139.5305  168.2117 C.ar    1  UNL1        0.1094
     12 H         136.2315  136.8995  167.5308 H       1  UNL1        0.2884
     13 H         136.3493  137.7569  169.0001 H       1  UNL1        0.2884
     14 C         139.5477  138.7687  164.5905 C.ar    1  UNL1        0.0328
     15 C         138.5406  139.1254  163.5376 C.ar    1  UNL1        0.0211
     16 C         138.6699  138.5605  162.1542 C.ar    1  UNL1        0.0987
     17 N         139.8062  137.6388  161.8235 N.ar    1  UNL1       -0.2423
     18 C         140.8132  137.2821  162.8763 C.ar    1  UNL1        0.0987
     19 C         140.6840  137.8471  164.2598 C.ar    1  UNL1        0.0211
     20 C         140.5323  140.2389  165.5385 C.ar    1  UNL1        0.0297
     21 C         141.9345  139.9807  166.0047 C.ar    1  UNL1        0.0004
     22 C         143.0484  140.8860  165.5691 C.ar    1  UNL1       -0.0002
     23 C         142.7601  142.0495  164.6674 C.ar    1  UNL1        0.0001
     24 C         141.3580  142.3078  164.2012 C.ar    1  UNL1        0.0028
     25 C         140.2440  141.4025  164.6368 C.ar    1  UNL1        0.0005
     26 C         141.0696  143.4713  163.2995 C.ar    1  UNL1        0.0384
     27 C         139.8124  144.2688  163.4830 C.ar    1  UNL1        0.1022
     28 N         139.5239  145.4322  162.5814 N.ar    1  UNL1       -0.2224
     29 C         140.4927  145.7983  161.4962 C.ar    1  UNL1        0.1989
     30 N         141.7499  145.0009  161.3128 N.ar    1  UNL1       -0.2224
     31 C         142.0383  143.8374  162.2144 C.ar    1  UNL1        0.1022
@<TRIPOS>BOND
     1     1     2    1
     2     2     3    2
     3     3     4    1
     4     4    14    1
     5    14    15   ar
     6    15    16   ar
     7    16    17   ar
     8    17    18   ar
     9    18    19   ar
    10     4    20    1
    11    20    21   ar
    12    21    22   ar
    13    22    23   ar
    14    23    24   ar
    15    24    26    1
    16    26    27   ar
    17    27    28   ar
    18    28    29   ar
    19    29    30   ar
    20    30    31   ar
    21    24    25   ar
    22     4     5    1
    23     5     6   ar
    24     6     7   ar
    25     7     8   ar
    26     8     9   ar
    27     9    10    1
    28     9    11   ar
    29    11     2    1
    30    19    14   ar
    31    25    20   ar
    32    11     5   ar
    33    31    26   ar
    34     1    12    1
    35     1    13    1
@<TRIPOS>MOLECULE
*****
 31 35 0 0 0
SMALL
GASTEIGER

@<TRIPOS>ATOM
      1 N         144.3552  144.1041  162.0941 N.pl3   1  UNL1       -0.2464
      2 C         143.4323  143.1702  162.8195 C.2     1  UNL1        0.3157
      3 N         141.9587  143.3658  163.0198 N.2     1  UNL1       -0.0614
      4 C         141.4367  142.1933  163.7961 C.3     1  UNL1        0.2309
      5 C         142.5878  141.2730  164.0756 C.ar    1  UNL1        0.0390
      6 C         142.6722  139.9632  164.8017 C.ar    1  UNL1        0.0008
      7 C         143.9899  139.2572  164.9243 C.ar    1  UNL1        0.0021
      8 C         145.2233  139.8610  164.3208 C.ar    1  UNL1        0.0299
      9 C         145.1389  141.1708  163.5947 C.ar    1  UNL1        0.1470
     10 F         146.3722  141.7746  162.9912 F       1  UNL1       -0.2039
     11 C         143.8211  141.8768  163.4721 C.ar    1  UNL1        0.1094
     12 H         144.0037  144.9337  161.6972 H       1  UNL1        0.2884
     13 H         145.3123  143.8875  162.0150 H       1  UNL1        0.2884
     14 C         140.1189  142.8993  163.6734 C.ar    1  UNL1        0.0328
     15 C         139.3155  142.7743  162.4130 C.ar    1  UNL1        0.0211
     16 C         137.9978  143.4803  162.2904 C.ar    1  UNL1        0.0987
     17 N         137.4835  144.3114  163.4283 N.ar    1  UNL1       -0.2423
     18 C         138.2869  144.4364  164.6887 C.ar    1  UNL1        0.0987
     19 C         139.6046  143.7304  164.8113 C.ar    1  UNL1        0.0211
     20 C         140.6393  141.1683  164.5467 C.ar    1  UNL1        0.0297
     21 C         139.7764  140.1949  163.7997 C.ar    1  UNL1        0.0004
     22 C         138.9789  139.1699  164.5503 C.ar    1  UNL1       -0.0002
     23 C         139.0443  139.1183  166.0480 C.ar    1  UNL1        0.0001
     24 C         139.9072  140.0916  166.7951 C.ar    1  UNL1        0.0028
     25 C         140.7047  141.1167  166.0444 C.ar    1  UNL1        0.0005
     26 C         139.9727  140.0401  168.2928 C.ar    1  UNL1        0.0384
     27 C         138.7111  139.9154  169.0947 C.ar    1  UNL1        0.1022
     28 N         138.7765  139.8639  170.5923 N.ar    1  UNL1       -0.2224
     29 C         140.1035  139.9369  171.2881 C.ar    1  UNL1        0.1989
     30 N         141.3649  140.0615  170.4861 N.ar    1  UNL1       -0.2224
     31 C         141.2995  140.1131  168.9884 C.ar    1  UNL1        0.1022
@<TRIPOS>BOND
     1     1     2    1
     2     2     3    2
     3     3     4    1
     4     4    14    1
     5    14    15   ar
     6    15    16   ar
     7    16    17   ar
     8    17    18   ar
     9    18    19   ar
    10     4    20    1
    11    20    21   ar
    12    21    22   ar
    13    22    23   ar
    14    23    24   ar
    15    24    26    1
    16    26    27   ar
    17    27    28   ar
    18    28    29   ar
    19    29    30   ar
    20    30    31   ar
    21    24    25   ar
    22     4     5    1
    23     5     6   ar
    24     6     7   ar
    25     7     8   ar
    26     8     9   ar
    27     9    10    1
    28     9    11   ar
    29    11     2    1
    30    19    14   ar
    31    25    20   ar
    32    11     5   ar
    33    31    26   ar
    34     1    12    1
    35     1    13    1
@<TRIPOS>MOLECULE
*****
 31 35 0 0 0
SMALL
GASTEIGER

@<TRIPOS>ATOM
      1 N         137.3508  139.3462  170.7004 N.pl3   1  UNL1       -0.2464
      2 C         138.3036  139.8062  169.6370 C.2     1  UNL1        0.3157
      3 N         139.3792  140.8383  169.8036 N.2     1  UNL1       -0.0614
      4 C         140.0883  140.9848  168.4899 C.3     1  UNL1        0.2309
      5 C         139.4510  140.0432  167.5115 C.ar    1  UNL1        0.0390
      6 C         139.7325  139.7551  166.0667 C.ar    1  UNL1        0.0008
      7 C         138.9110  138.7385  165.3308 C.ar    1  UNL1        0.0021
      8 C         137.8079  138.0100  166.0398 C.ar    1  UNL1        0.0299
      9 C         137.5264  138.2982  167.4846 C.ar    1  UNL1        0.1470
     10 F         136.4233  137.5698  168.1936 F       1  UNL1       -0.2039
     11 C         138.3479  139.3148  168.2205 C.ar    1  UNL1        0.1094
     12 H         137.4004  139.7304  171.6054 H       1  UNL1        0.2884
     13 H         136.6759  138.6601  170.4932 H       1  UNL1        0.2884
     14 C         140.9099  142.0015  169.2259 C.ar    1  UNL1        0.0328
     15 C         142.3238  141.6848  169.6136 C.ar    1  UNL1        0.0211
     16 C         143.1453  142.7014  170.3495 C.ar    1  UNL1        0.0987
     17 N         142.5528  144.0347  170.6977 N.ar    1  UNL1       -0.2423
     18 C         141.1388  144.3514  170.3099 C.ar    1  UNL1        0.0987
     19 C         140.3174  143.3348  169.5740 C.ar    1  UNL1        0.0211
     20 C         140.9692  141.3438  167.3301 C.ar    1  UNL1        0.0297
     21 C         142.2949  140.6638  167.1564 C.ar    1  UNL1        0.0004
     22 C         143.1758  141.0228  165.9967 C.ar    1  UNL1       -0.0002
     23 C         142.7310  142.0619  165.0105 C.ar    1  UNL1        0.0001
     24 C         141.4054  142.7420  165.1841 C.ar    1  UNL1        0.0028
     25 C         140.5244  142.3830  166.3440 C.ar    1  UNL1        0.0005
     26 C         140.9605  143.7811  164.1981 C.ar    1  UNL1        0.0384
     27 C         139.5065  144.1314  164.0824 C.ar    1  UNL1        0.1022
     28 N         139.0616  145.1705  163.0964 N.ar    1  UNL1       -0.2224
     29 C         140.0707  145.8592  162.2260 C.ar    1  UNL1        0.1989
     30 N         141.5246  145.5089  162.3417 N.ar    1  UNL1       -0.2224
     31 C         141.9695  144.4698  163.3277 C.ar    1  UNL1        0.1022
@<TRIPOS>BOND
     1     1     2    1
     2     2     3    2
     3     3     4    1
     4     4    14    1
     5    14    15   ar
     6    15    16   ar
     7    16    17   ar
     8    17    18   ar
     9    18    19   ar
    10     4    20    1
    11    20    21   ar
    12    21    22   ar
    13    22    23   ar
    14    23    24   ar
    15    24    26    1
    16    26    27   ar
    17    27    28   ar
    18    28    29   ar
    19    29    30   ar
    20    30    31   ar
    21    24    25   ar
    22     4     5    1
    23     5     6   ar
    24     6     7   ar
    25     7     8   ar
    26     8     9   ar
    27     9    10    1
    28     9    11   ar
    29    11     2    1
    30    19    14   ar
    31    25    20   ar
    32    11     5   ar
    33    31    26   ar
    34     1    12    1
    35     1    13    1
@<TRIPOS>MOLECULE
*****
 31 35 0 0 0
SMALL
GASTEIGER

@<TRIPOS>ATOM
      1 N         140.6665  140.2210  160.0801 N.pl3   1  UNL1       -0.2464
      2 C         140.9923  140.0237  161.5309 C.2     1  UNL1        0.3157
      3 N         142.1016  140.6955  162.2847 N.2     1  UNL1       -0.0614
      4 C         142.0608  140.2070  163.7023 C.3     1  UNL1        0.2309
      5 C         140.9263  139.2333  163.8247 C.ar    1  UNL1        0.0390
      6 C         140.4093  138.4352  164.9847 C.ar    1  UNL1        0.0008
      7 C         139.2320  137.5239  164.8028 C.ar    1  UNL1        0.0021
      8 C         138.5716  137.4106  163.4607 C.ar    1  UNL1        0.0299
      9 C         139.0885  138.2087  162.3007 C.ar    1  UNL1        0.1470
     10 F         138.4281  138.0954  160.9587 F       1  UNL1       -0.2039
     11 C         140.2659  139.1200  162.4827 C.ar    1  UNL1        0.1094
     12 H         141.2044  140.8391  159.5344 H       1  UNL1        0.2884
     13 H         139.9147  139.7323  159.6735 H       1  UNL1        0.2884
     14 C         143.2382  141.1184  163.8842 C.ar    1  UNL1        0.0328
     15 C         143.0298  142.5294  164.3486 C.ar    1  UNL1        0.0211
     16 C         144.2072  143.4407  164.5305 C.ar    1  UNL1        0.0987
     17 N         145.5931  142.9410  164.2481 N.ar    1  UNL1       -0.2423
     18 C         145.8015  141.5301  163.7838 C.ar    1  UNL1        0.0987
     19 C         144.6241  140.6187  163.6019 C.ar    1  UNL1        0.0211
     20 C         142.2662  139.9090  165.1580 C.ar    1  UNL1        0.0297
     21 C         143.1538  138.7732  165.5731 C.ar    1  UNL1        0.0004
     22 C         143.3592  138.4753  167.0288 C.ar    1  UNL1       -0.0002
     23 C         142.6770  139.3131  168.0694 C.ar    1  UNL1        0.0001
     24 C         141.7895  140.4488  167.6543 C.ar    1  UNL1        0.0028
     25 C         141.5841  140.7468  166.1986 C.ar    1  UNL1        0.0005
     26 C         141.1073  141.2867  168.6948 C.ar    1  UNL1        0.0384
     27 C         139.8566  140.7890  169.3567 C.ar    1  UNL1        0.1022
     28 N         139.1744  141.6267  170.3972 N.ar    1  UNL1       -0.2224
     29 C         139.7429  142.9622  170.7758 C.ar    1  UNL1        0.1989
     30 N         140.9936  143.4599  170.1139 N.ar    1  UNL1       -0.2224
     31 C         141.6758  142.6221  169.0734 C.ar    1  UNL1        0.1022
@<TRIPOS>BOND
     1     1     2    1
     2     2     3    2
     3     3     4    1
     4     4    14    1
     5    14    15   ar
     6    15    16   ar
     7    16    17   ar
     8    17    18   ar
     9    18    19   ar
    10     4    20    1
    11    20    21   ar
    12    21    22   ar
    13    22    23   ar
    14    23    24   ar
    15    24    26    1
    16    26    27   ar
    17    27    28   ar
    18    28    29   ar
    19    29    30   ar
    20    30    31   ar
    21    24    25   ar
    22     4     5    1
    23     5     6   ar
    24     6     7   ar
    25     7     8   ar
    26     8     9   ar
    27     9    10    1
    28     9    11   ar
    29    11     2    1
    30    19    14   ar
    31    25    20   ar
    32    11     5   ar
    33    31    26   ar
    34     1    12    1
    35     1    13    1
@<TRIPOS>MOLECULE
*****
 31 35 0 0 0
SMALL
GASTEIGER

@<TRIPOS>ATOM
      1 N         142.0372  145.0281  161.0942 N.pl3   1  UNL1       -0.2464
      2 C         141.5165  143.9827  162.0355 C.2     1  UNL1        0.3157
      3 N         142.2621  142.7686  162.5045 N.2     1  UNL1       -0.0614
      4 C         141.3652  142.0034  163.4319 C.3     1  UNL1        0.2309
      5 C         140.0653  142.7447  163.5360 C.ar    1  UNL1        0.0390
      6 C         138.8085  142.4638  164.3052 C.ar    1  UNL1        0.0008
      7 C         137.6453  143.4062  164.2113 C.ar    1  UNL1        0.0021
      8 C         137.7389  144.6294  163.3482 C.ar    1  UNL1        0.0299
      9 C         138.9956  144.9103  162.5791 C.ar    1  UNL1        0.1470
     10 F         139.0892  146.1336  161.7160 F       1  UNL1       -0.2039
     11 C         140.1588  143.9679  162.6730 C.ar    1  UNL1        0.1094
     12 H         142.9470  144.9498  160.7261 H       1  UNL1        0.2884
     13 H         141.4693  145.7925  160.8445 H       1  UNL1        0.2884
     14 C         142.5285  141.0610  163.5258 C.ar    1  UNL1        0.0328
     15 C         143.7367  141.4388  164.3304 C.ar    1  UNL1        0.0211
     16 C         144.8999  140.4964  164.4242 C.ar    1  UNL1        0.0987
     17 N         144.8548  139.1763  163.7134 N.ar    1  UNL1       -0.2423
     18 C         143.6466  138.7985  162.9088 C.ar    1  UNL1        0.0987
     19 C         142.4834  139.7409  162.8150 C.ar    1  UNL1        0.0211
     20 C         140.7114  141.0413  164.3789 C.ar    1  UNL1        0.0297
     21 C         139.8486  139.9352  163.8475 C.ar    1  UNL1        0.0004
     22 C         139.1949  138.9731  164.7945 C.ar    1  UNL1       -0.0002
     23 C         139.4039  139.1169  166.2729 C.ar    1  UNL1        0.0001
     24 C         140.2667  140.2229  166.8043 C.ar    1  UNL1        0.0028
     25 C         140.9205  141.1851  165.8573 C.ar    1  UNL1        0.0005
     26 C         140.4758  140.3668  168.2827 C.ar    1  UNL1        0.0384
     27 C         141.8569  140.5812  168.8274 C.ar    1  UNL1        0.1022
     28 N         142.0661  140.7251  170.3057 N.ar    1  UNL1       -0.2224
     29 C         140.8941  140.6546  171.2394 C.ar    1  UNL1        0.1989
     30 N         139.5131  140.4402  170.6947 N.ar    1  UNL1       -0.2224
     31 C         139.3039  140.2963  169.2163 C.ar    1  UNL1        0.1022
@<TRIPOS>BOND
     1     1     2    1
     2     2     3    2
     3     3     4    1
     4     4    14    1
     5    14    15   ar
     6    15    16   ar
     7    16    17   ar
     8    17    18   ar
     9    18    19   ar
    10     4    20    1
    11    20    21   ar
    12    21    22   ar
    13    22    23   ar
    14    23    24   ar
    15    24    26    1
    16    26    27   ar
    17    27    28   ar
    18    28    29   ar
    19    29    30   ar
    20    30    31   ar
    21    24    25   ar
    22     4     5    1
    23     5     6   ar
    24     6     7   ar
    25     7     8   ar
    26     8     9   ar
    27     9    10    1
    28     9    11   ar
    29    11     2    1
    30    19    14   ar
    31    25    20   ar
    32    11     5   ar
    33    31    26   ar
    34     1    12    1
    35     1    13    1
@<TRIPOS>MOLECULE
*****
 31 35 0 0 0
SMALL
GASTEIGER

@<TRIPOS>ATOM
      1 N         138.6050  139.9123  170.2936 N.pl3   1  UNL1       -0.2464
      2 C         139.5334  140.2426  169.1627 C.2     1  UNL1        0.3157
      3 N         139.3715  139.8128  167.7348 N.2     1  UNL1       -0.0614
      4 C         140.5248  140.3653  166.9508 C.3     1  UNL1        0.2309
      5 C         141.3995  141.1367  167.8943 C.ar    1  UNL1        0.0390
      6 C         142.6746  141.8983  167.6851 C.ar    1  UNL1        0.0008
      7 C         143.3371  142.5841  168.8430 C.ar    1  UNL1        0.0021
      8 C         142.7244  142.5082  170.2101 C.ar    1  UNL1        0.0299
      9 C         141.4492  141.7466  170.4192 C.ar    1  UNL1        0.1470
     10 F         140.8365  141.6708  171.7863 F       1  UNL1       -0.2039
     11 C         140.7867  141.0608  169.2613 C.ar    1  UNL1        0.1094
     12 H         137.8031  139.3654  170.1285 H       1  UNL1        0.2884
     13 H         138.7974  140.2423  171.2010 H       1  UNL1        0.2884
     14 C         139.8623  139.6795  165.7929 C.ar    1  UNL1        0.0328
     15 C         138.6704  140.3062  165.1321 C.ar    1  UNL1        0.0211
     16 C         138.0079  139.6203  163.9743 C.ar    1  UNL1        0.0987
     17 N         138.5373  138.3079  163.4771 N.ar    1  UNL1       -0.2423
     18 C         139.7292  137.6812  164.1379 C.ar    1  UNL1        0.0987
     19 C         140.3917  138.3670  165.2958 C.ar    1  UNL1        0.0211
     20 C         141.5396  140.7745  165.9248 C.ar    1  UNL1        0.0297
     21 C         142.8978  140.1378  165.9177 C.ar    1  UNL1        0.0004
     22 C         143.9126  140.5470  164.8917 C.ar    1  UNL1       -0.0002
     23 C         143.5692  141.5929  163.8727 C.ar    1  UNL1        0.0001
     24 C         142.2111  142.2296  163.8798 C.ar    1  UNL1        0.0028
     25 C         141.1962  141.8204  164.9058 C.ar    1  UNL1        0.0005
     26 C         141.8676  143.2755  162.8608 C.ar    1  UNL1        0.0384
     27 C         142.6043  143.3207  161.5549 C.ar    1  UNL1        0.1022
     28 N         142.2610  144.3664  160.5360 N.ar    1  UNL1       -0.2224
     29 C         141.1809  145.3671  160.8229 C.ar    1  UNL1        0.1989
     30 N         140.4442  145.3218  162.1288 N.ar    1  UNL1       -0.2224
     31 C         140.7876  144.2760  163.1478 C.ar    1  UNL1        0.1022
@<TRIPOS>BOND
     1     1     2    1
     2     2     3    2
     3     3     4    1
     4     4    14    1
     5    14    15   ar
     6    15    16   ar
     7    16    17   ar
     8    17    18   ar
     9    18    19   ar
    10     4    20    1
    11    20    21   ar
    12    21    22   ar
    13    22    23   ar
    14    23    24   ar
    15    24    26    1
    16    26    27   ar
    17    27    28   ar
    18    28    29   ar
    19    29    30   ar
    20    30    31   ar
    21    24    25   ar
    22     4     5    1
    23     5     6   ar
    24     6     7   ar
    25     7     8   ar
    26     8     9   ar
    27     9    10    1
    28     9    11   ar
    29    11     2    1
    30    19    14   ar
    31    25    20   ar
    32    11     5   ar
    33    31    26   ar
    34     1    12    1
    35     1    13    1
@<TRIPOS>MOLECULE
*****
 31 35 0 0 0
SMALL
GASTEIGER

@<TRIPOS>ATOM
      1 N         138.3129  142.6309  159.8247 N.pl3   1  UNL1       -0.2464
      2 C         139.1543  141.9368  160.8544 C.2     1  UNL1        0.3157
      3 N         140.3659  142.5051  161.5318 N.2     1  UNL1       -0.0614
      4 C         140.8922  141.4719  162.4835 C.3     1  UNL1        0.2309
      5 C         140.0058  140.2651  162.3943 C.ar    1  UNL1        0.0390
      6 C         140.0379  138.9418  163.0997 C.ar    1  UNL1        0.0008
      7 C         138.9960  137.9057  162.7983 C.ar    1  UNL1        0.0021
      8 C         137.9219  138.1930  161.7914 C.ar    1  UNL1        0.0299
      9 C         137.8897  139.5164  161.0860 C.ar    1  UNL1        0.1470
     10 F         136.8156  139.8037  160.0791 F       1  UNL1       -0.2039
     11 C         138.9317  140.5524  161.3874 C.ar    1  UNL1        0.1094
     12 H         138.5406  143.5447  159.5376 H       1  UNL1        0.2884
     13 H         137.5330  142.1728  159.4361 H       1  UNL1        0.2884
     14 C         141.9342  142.5081  162.7849 C.ar    1  UNL1        0.0328
     15 C         141.6993  143.5136  163.8729 C.ar    1  UNL1        0.0211
     16 C         142.7413  144.5496  164.1743 C.ar    1  UNL1        0.0987
     17 N         144.0181  144.5802  163.3876 N.ar    1  UNL1       -0.2423
     18 C         144.2529  143.5747  162.2996 C.ar    1  UNL1        0.0987
     19 C         143.2110  142.5386  161.9983 C.ar    1  UNL1        0.0211
     20 C         141.6363  140.6554  163.4982 C.ar    1  UNL1        0.0297
     21 C         142.8145  139.8279  163.0771 C.ar    1  UNL1        0.0004
     22 C         143.5586  139.0114  164.0918 C.ar    1  UNL1       -0.0002
     23 C         143.1245  139.0223  165.5276 C.ar    1  UNL1        0.0001
     24 C         141.9464  139.8497  165.9487 C.ar    1  UNL1        0.0028
     25 C         141.2022  140.6663  164.9340 C.ar    1  UNL1        0.0005
     26 C         141.5122  139.8607  167.3845 C.ar    1  UNL1        0.0384
     27 C         142.5333  139.7470  168.4776 C.ar    1  UNL1        0.1022
     28 N         142.0993  139.7580  169.9133 N.ar    1  UNL1       -0.2224
     29 C         140.6442  139.8826  170.2560 C.ar    1  UNL1        0.1989
     30 N         139.6233  139.9963  169.1630 N.ar    1  UNL1       -0.2224
     31 C         140.0573  139.9854  167.7272 C.ar    1  UNL1        0.1022
@<TRIPOS>BOND
     1     1     2    1
     2     2     3    2
     3     3     4    1
     4     4    14    1
     5    14    15   ar
     6    15    16   ar
     7    16    17   ar
     8    17    18   ar
     9    18    19   ar
    10     4    20    1
    11    20    21   ar
    12    21    22   ar
    13    22    23   ar
    14    23    24   ar
    15    24    26    1
    16    26    27   ar
    17    27    28   ar
    18    28    29   ar
    19    29    30   ar
    20    30    31   ar
    21    24    25   ar
    22     4     5    1
    23     5     6   ar
    24     6     7   ar
    25     7     8   ar
    26     8     9   ar
    27     9    10    1
    28     9    11   ar
    29    11     2    1
    30    19    14   ar
    31    25    20   ar
    32    11     5   ar
    33    31    26   ar
    34     1    12    1
    35     1    13    1
@<TRIPOS>MOLECULE
*****
 31 35 0 0 0
SMALL
GASTEIGER

@<TRIPOS>ATOM
      1 N         143.4119  142.9191  170.1364 N.pl3   1  UNL1       -0.2464
      2 C         142.7929  142.1769  168.9893 C.2     1  UNL1        0.3157
      3 N         143.3875  142.0122  167.6221 N.2     1  UNL1       -0.0614
      4 C         142.4326  141.2027  166.7958 C.3     1  UNL1        0.2309
      5 C         141.2478  140.8670  167.6523 C.ar    1  UNL1        0.0390
      6 C         139.9950  140.0909  167.3729 C.ar    1  UNL1        0.0008
      7 C         138.9649  139.9169  168.4493 C.ar    1  UNL1        0.0021
      8 C         139.1875  140.5191  169.8049 C.ar    1  UNL1        0.0299
      9 C         140.4403  141.2952  170.0843 C.ar    1  UNL1        0.1470
     10 F         140.6630  141.8974  171.4400 F       1  UNL1       -0.2039
     11 C         141.4705  141.4692  169.0080 C.ar    1  UNL1        0.1094
     12 H         144.2885  143.3535  170.0260 H       1  UNL1        0.2884
     13 H         142.9416  142.9719  170.9997 H       1  UNL1        0.2884
     14 C         143.4629  141.3767  165.7195 C.ar    1  UNL1        0.0328
     15 C         144.1306  140.1752  165.1192 C.ar    1  UNL1        0.0211
     16 C         145.1608  140.3492  164.0429 C.ar    1  UNL1        0.0987
     17 N         145.5232  141.7247  163.5669 N.ar    1  UNL1       -0.2423
     18 C         144.8554  142.9262  164.1672 C.ar    1  UNL1        0.0987
     19 C         143.8252  142.7522  165.2435 C.ar    1  UNL1        0.0211
     20 C         141.6931  140.4294  165.7445 C.ar    1  UNL1        0.0297
     21 C         141.6409  138.9318  165.8125 C.ar    1  UNL1        0.0004
     22 C         140.9014  138.1586  164.7612 C.ar    1  UNL1       -0.0002
     23 C         140.2141  138.8830  163.6419 C.ar    1  UNL1        0.0001
     24 C         140.2663  140.3805  163.5738 C.ar    1  UNL1        0.0028
     25 C         141.0058  141.1538  164.6251 C.ar    1  UNL1        0.0005
     26 C         139.5790  141.1049  162.4545 C.ar    1  UNL1        0.0384
     27 C         139.9774  140.8392  161.0329 C.ar    1  UNL1        0.1022
     28 N         139.2902  141.5635  159.9135 N.ar    1  UNL1       -0.2224
     29 C         138.2046  142.5536  160.2157 C.ar    1  UNL1        0.1989
     30 N         137.8062  142.8193  161.6372 N.ar    1  UNL1       -0.2224
     31 C         138.4935  142.0949  162.7566 C.ar    1  UNL1        0.1022
@<TRIPOS>BOND
     1     1     2    1
     2     2     3    2
     3     3     4    1
     4     4    14    1
     5    14    15   ar
     6    15    16   ar
     7    16    17   ar
     8    17    18   ar
     9    18    19   ar
    10     4    20    1
    11    20    21   ar
    12    21    22   ar
    13    22    23   ar
    14    23    24   ar
    15    24    26    1
    16    26    27   ar
    17    27    28   ar
    18    28    29   ar
    19    29    30   ar
    20    30    31   ar
    21    24    25   ar
    22     4     5    1
    23     5     6   ar
    24     6     7   ar
    25     7     8   ar
    26     8     9   ar
    27     9    10    1
    28     9    11   ar
    29    11     2    1
    30    19    14   ar
    31    25    20   ar
    32    11     5   ar
    33    31    26   ar
    34     1    12    1
    35     1    13    1
@<TRIPOS>MOLECULE
*****
 31 35 0 0 0
SMALL
GASTEIGER

@<TRIPOS>ATOM
      1 N         141.4761  141.8729  169.2150 N.pl3   1  UNL1       -0.2464
      2 C         141.2728  141.1275  167.9293 C.2     1  UNL1        0.3157
      3 N         142.2022  141.1303  166.7520 N.2     1  UNL1       -0.0614
      4 C         141.6080  140.2529  165.6904 C.3     1  UNL1        0.2309
      5 C         140.3115  139.7077  166.2116 C.ar    1  UNL1        0.0390
      6 C         139.2928  138.7890  165.6049 C.ar    1  UNL1        0.0008
      7 C         138.0668  138.4107  166.3820 C.ar    1  UNL1        0.0021
      8 C         137.8596  138.9512  167.7658 C.ar    1  UNL1        0.0299
      9 C         138.8783  139.8700  168.3725 C.ar    1  UNL1        0.1470
     10 F         138.6711  140.4105  169.7563 F       1  UNL1       -0.2039
     11 C         140.1042  140.2482  167.5954 C.ar    1  UNL1        0.1094
     12 H         142.2799  142.4274  169.3407 H       1  UNL1        0.2884
     13 H         140.8059  141.8077  169.9332 H       1  UNL1        0.2884
     14 C         142.8341  140.6312  164.9132 C.ar    1  UNL1        0.0328
     15 C         143.9956  139.6851  164.8374 C.ar    1  UNL1        0.0211
     16 C         145.2215  140.0634  164.0603 C.ar    1  UNL1        0.0987
     17 N         145.2859  141.3878  163.3590 N.ar    1  UNL1       -0.2423
     18 C         144.1244  142.3339  163.4348 C.ar    1  UNL1        0.0987
     19 C         142.8985  141.9556  164.2119 C.ar    1  UNL1        0.0211
     20 C         141.2702  139.4545  164.4662 C.ar    1  UNL1        0.0297
     21 C         141.6185  137.9969  164.4017 C.ar    1  UNL1        0.0004
     22 C         141.2807  137.1985  163.1776 C.ar    1  UNL1       -0.0002
     23 C         140.5946  137.8577  162.0180 C.ar    1  UNL1        0.0001
     24 C         140.2463  139.3153  162.0824 C.ar    1  UNL1        0.0028
     25 C         140.5842  140.1138  163.3066 C.ar    1  UNL1        0.0005
     26 C         139.5603  139.9746  160.9228 C.ar    1  UNL1        0.0384
     27 C         139.1497  139.1596  159.7323 C.ar    1  UNL1        0.1022
     28 N         138.4636  139.8188  158.5727 N.ar    1  UNL1       -0.2224
     29 C         138.1882  141.2930  158.6036 C.ar    1  UNL1        0.1989
     30 N         138.5988  142.1080  159.7941 N.ar    1  UNL1       -0.2224
     31 C         139.2849  141.4487  160.9537 C.ar    1  UNL1        0.1022
@<TRIPOS>BOND
     1     1     2    1
     2     2     3    2
     3     3     4    1
     4     4    14    1
     5    14    15   ar
     6    15    16   ar
     7    16    17   ar
     8    17    18   ar
     9    18    19   ar
    10     4    20    1
    11    20    21   ar
    12    21    22   ar
    13    22    23   ar
    14    23    24   ar
    15    24    26    1
    16    26    27   ar
    17    27    28   ar
    18    28    29   ar
    19    29    30   ar
    20    30    31   ar
    21    24    25   ar
    22     4     5    1
    23     5     6   ar
    24     6     7   ar
    25     7     8   ar
    26     8     9   ar
    27     9    10    1
    28     9    11   ar
    29    11     2    1
    30    19    14   ar
    31    25    20   ar
    32    11     5   ar
    33    31    26   ar
    34     1    12    1
    35     1    13    1
