@<TRIPOS>MOLECULE
*****
 39 44 0 0 0
SMALL
GASTEIGER

@<TRIPOS>ATOM
      1 C         142.6889  135.6744  157.3387 C.ar    1  UNL1        0.2400
      2 N         142.1840  135.2913  155.9792 N.ar    1  UNL1       -0.2090
      3 C         141.5066  136.3135  155.1152 C.ar    1  UNL1        0.1036
      4 C         141.1701  137.8075  155.3018 C.ar    1  UNL1        0.0384
      5 C         141.8717  137.2123  156.4865 C.ar    1  UNL1        0.0236
      6 C         142.5167  137.0796  157.8342 C.ar    1  UNL1        0.1179
      7 N         143.0350  137.4239  159.1991 N.pl3   1  UNL1       -0.2104
      8 S         143.3705  138.2079  160.4331 S.O2    1  UNL1        0.0737
      9 O         143.8025  136.7728  160.4949 O.2     1  UNL1       -0.1499
     10 O         144.0531  137.8389  161.7168 O.2     1  UNL1       -0.1499
     11 C         143.4320  139.6910  161.4959 C.ar    1  UNL1        0.1253
     12 C         144.0980  139.4393  162.8161 C.ar    1  UNL1        0.0202
     13 C         144.2335  140.5526  163.8121 C.ar    1  UNL1        0.0015
     14 C         143.7030  141.9177  163.4879 C.ar    1  UNL1        0.0046
     15 C         143.0369  142.1694  162.1677 C.ar    1  UNL1        0.0547
     16 C         142.9015  141.0560  161.1717 C.ar    1  UNL1        0.0247
     17 C         142.5193  143.5476  161.8804 C.2     1  UNL1        0.2459
     18 O         142.9048  144.2279  163.1605 O.2     1  UNL1       -0.2701
     19 N         141.8749  144.7019  161.1718 N.am    1  UNL1       -0.2989
     20 C         141.1733  145.5073  160.1185 C.3     1  UNL1        0.1161
     21 C         140.4907  145.8762  158.8348 C.3     1  UNL1        0.1487
     22 N         139.9010  145.7690  157.4597 N.ar    1  UNL1       -0.2476
     23 C         139.4682  145.1970  156.1423 C.ar    1  UNL1        0.0968
     24 C         139.2391  144.2225  155.0254 C.ar    1  UNL1        0.0441
     25 C         138.7542  145.6281  154.8277 C.ar    1  UNL1        0.1218
     26 N         139.0897  146.4120  156.0617 N.ar    1  UNL1       -0.1676
     27 C         139.2386  142.9507  154.2298 C.ar    1  UNL1        0.0597
     28 C         138.5347  143.6323  153.0941 C.ar    1  UNL1        0.1237
     29 N         138.3277  142.6226  152.0043 N.ar    1  UNL1       -0.1621
     30 N         138.9037  141.3171  152.4665 N.ar    1  UNL1       -0.2106
     31 C         139.2945  139.5371  152.2214 C.ar    1  UNL1        0.1036
     32 C         139.9635  138.4743  153.0418 C.ar    1  UNL1        0.0399
     33 C         140.4878  138.8009  154.4087 C.ar    1  UNL1        0.0860
     34 N         139.8987  140.0847  153.9038 N.ar    1  UNL1       -0.2264
     35 C         139.4667  141.5198  153.8420 C.ar    1  UNL1        0.1653
     36 H         143.3994  136.5473  159.4599 H       1  UNL1        0.1739
     37 H         141.9886  145.3978  161.8589 H       1  UNL1        0.1498
     38 C         144.1000  133.5055  157.5728 C.3     1  UNL1        0.2543
     39 O         143.3662  134.6521  158.2026 O.3     1  UNL1       -0.4553
@<TRIPOS>BOND
     1    38    39    1
     2    39     1    1
     3     1     2   ar
     4     2     3   ar
     5     3     4   ar
     6     4     5   ar
     7     5     6   ar
     8     6     7    1
     9     7     8    1
    10     8     9    2
    11     8    10    2
    12     8    11    1
    13    11    12   ar
    14    12    13   ar
    15    13    14   ar
    16    14    15   ar
    17    15    16   ar
    18    15    17    1
    19    17    18    2
    20    17    19   am
    21    19    20    1
    22    20    21    1
    23    21    22    1
    24    22    23   ar
    25    23    24   ar
    26    24    25   ar
    27    25    26   ar
    28    24    27    1
    29    27    28   ar
    30    28    29   ar
    31    29    30   ar
    32    30    31   ar
    33    31    32   ar
    34    32    33   ar
    35    33    34   ar
    36    34    35   ar
    37     6     1   ar
    38    16    11   ar
    39    26    22   ar
    40    35    27   ar
    41    33     4    1
    42    35    30   ar
    43     7    36    1
    44    19    37    1
@<TRIPOS>MOLECULE
*****
 39 44 0 0 0
SMALL
GASTEIGER

@<TRIPOS>ATOM
      1 C         139.2913  146.9613  156.8653 C.ar    1  UNL1        0.2400
      2 N         139.2506  146.9176  155.3665 N.ar    1  UNL1       -0.2090
      3 C         139.6803  145.6773  154.6405 C.ar    1  UNL1        0.1036
      4 C         140.2047  144.3024  155.1042 C.ar    1  UNL1        0.0384
      5 C         139.9057  145.2306  156.2440 C.ar    1  UNL1        0.0236
      6 C         139.7616  145.7649  157.6381 C.ar    1  UNL1        0.1179
      7 N         139.7879  145.8474  159.1356 N.pl3   1  UNL1       -0.2104
      8 S         139.9818  145.4693  160.5742 S.O2    1  UNL1        0.0737
      9 O         139.4609  146.8627  160.3824 O.2     1  UNL1       -0.1499
     10 O         139.7572  146.2106  161.8586 O.2     1  UNL1       -0.1499
     11 C         140.4396  144.3696  161.9577 C.ar    1  UNL1        0.1253
     12 C         140.2546  145.0096  163.3016 C.ar    1  UNL1        0.0202
     13 C         140.5841  144.2439  164.5486 C.ar    1  UNL1        0.0015
     14 C         141.0986  142.8383  164.4518 C.ar    1  UNL1        0.0046
     15 C         141.2836  142.1983  163.1079 C.ar    1  UNL1        0.0547
     16 C         140.9541  142.9639  161.8608 C.ar    1  UNL1        0.0247
     17 C         141.8002  140.7911  163.0522 C.2     1  UNL1        0.2459
     18 O         141.9535  140.5261  164.5207 O.2     1  UNL1       -0.2701
     19 N         142.2663  139.4712  162.5133 N.am    1  UNL1       -0.2989
     20 C         142.6315  138.3815  161.5493 C.3     1  UNL1        0.1161
     21 C         142.8561  137.6402  160.2647 C.3     1  UNL1        0.1487
     22 N         142.9158  137.3274  158.7989 N.ar    1  UNL1       -0.2476
     23 C         142.8041  137.4774  157.3106 C.ar    1  UNL1        0.0968
     24 C         142.5333  138.0735  155.9611 C.ar    1  UNL1        0.0441
     25 C         143.0533  136.6672  156.0046 C.ar    1  UNL1        0.1218
     26 N         143.2472  136.2891  157.4432 N.ar    1  UNL1       -0.1676
     27 C         142.1324  139.0514  154.8966 C.ar    1  UNL1        0.0597
     28 C         142.4589  138.0554  153.8237 C.ar    1  UNL1        0.1237
     29 N         142.1735  138.6934  152.4965 N.ar    1  UNL1       -0.1621
     30 N         141.6705  140.0837  152.7492 N.ar    1  UNL1       -0.2106
     31 C         141.0474  141.7149  152.1729 C.ar    1  UNL1        0.1036
     32 C         140.6063  142.9808  152.8458 C.ar    1  UNL1        0.0399
     33 C         140.6260  143.0810  154.3423 C.ar    1  UNL1        0.0860
     34 N         141.1242  141.6986  154.0408 N.ar    1  UNL1       -0.2264
     35 C         141.6452  140.3050  154.2326 C.ar    1  UNL1        0.1653
     36 H         139.4537  146.7660  159.2532 H       1  UNL1        0.1739
     37 H         142.4676  139.0122  163.3606 H       1  UNL1        0.1498
     38 C         138.4886  149.4318  156.8184 C.3     1  UNL1        0.2543
     39 O         138.8615  148.2017  157.5913 O.3     1  UNL1       -0.4553
@<TRIPOS>BOND
     1    38    39    1
     2    39     1    1
     3     1     2   ar
     4     2     3   ar
     5     3     4   ar
     6     4     5   ar
     7     5     6   ar
     8     6     7    1
     9     7     8    1
    10     8     9    2
    11     8    10    2
    12     8    11    1
    13    11    12   ar
    14    12    13   ar
    15    13    14   ar
    16    14    15   ar
    17    15    16   ar
    18    15    17    1
    19    17    18    2
    20    17    19   am
    21    19    20    1
    22    20    21    1
    23    21    22    1
    24    22    23   ar
    25    23    24   ar
    26    24    25   ar
    27    25    26   ar
    28    24    27    1
    29    27    28   ar
    30    28    29   ar
    31    29    30   ar
    32    30    31   ar
    33    31    32   ar
    34    32    33   ar
    35    33    34   ar
    36    34    35   ar
    37     6     1   ar
    38    16    11   ar
    39    26    22   ar
    40    35    27   ar
    41    33     4    1
    42    35    30   ar
    43     7    36    1
    44    19    37    1
@<TRIPOS>MOLECULE
*****
 39 44 0 0 0
SMALL
GASTEIGER

@<TRIPOS>ATOM
      1 C         140.0648  145.7841  155.2868 C.ar    1  UNL1        0.2400
      2 N         139.7051  146.8721  156.2547 N.ar    1  UNL1       -0.2090
      3 C         139.7946  146.6223  157.7311 C.ar    1  UNL1        0.1036
      4 C         140.2062  145.4009  158.5791 C.ar    1  UNL1        0.0384
      5 C         140.2862  145.1438  157.1034 C.ar    1  UNL1        0.0236
      6 C         140.5140  144.4463  155.7952 C.ar    1  UNL1        0.1179
      7 N         140.8650  143.3840  154.7960 N.pl3   1  UNL1       -0.2104
      8 S         141.3012  142.0720  154.2142 S.O2    1  UNL1        0.0737
      9 O         140.9525  143.1028  153.1819 O.2     1  UNL1       -0.1499
     10 O         141.4572  141.5882  152.8031 O.2     1  UNL1       -0.1499
     11 C         141.8799  140.3412  154.2629 C.ar    1  UNL1        0.1253
     12 C         142.0724  139.7485  152.8985 C.ar    1  UNL1        0.0202
     13 C         142.5453  138.3322  152.7560 C.ar    1  UNL1        0.0015
     14 C         142.8255  137.5085  153.9779 C.ar    1  UNL1        0.0046
     15 C         142.6330  138.1012  155.3423 C.ar    1  UNL1        0.0547
     16 C         142.1601  139.5176  155.4848 C.ar    1  UNL1        0.0247
     17 C         142.9237  137.2459  156.5398 C.2     1  UNL1        0.2459
     18 O         143.3427  135.9838  155.8459 O.2     1  UNL1       -0.2701
     19 N         143.0765  136.8060  157.9656 N.am    1  UNL1       -0.2989
     20 C         143.0748  136.8293  159.4655 C.3     1  UNL1        0.1161
     21 C         142.9188  137.3132  160.8767 C.3     1  UNL1        0.1487
     22 N         142.6254  138.2053  162.0464 N.ar    1  UNL1       -0.2476
     23 C         142.2264  139.4088  162.8478 C.ar    1  UNL1        0.0968
     24 C         141.7650  140.7934  163.1940 C.ar    1  UNL1        0.0441
     25 C         142.0799  139.8649  164.3292 C.ar    1  UNL1        0.1218
     26 N         142.5161  138.5529  163.7474 N.ar    1  UNL1       -0.1676
     27 C         141.2912  142.2091  163.0476 C.ar    1  UNL1        0.0597
     28 C         141.2424  142.3732  164.5378 C.ar    1  UNL1        0.1237
     29 N         140.7774  143.7679  164.8356 N.ar    1  UNL1       -0.1621
     30 N         140.5389  144.4657  163.5295 N.ar    1  UNL1       -0.2106
     31 C         140.0440  145.9343  162.5398 C.ar    1  UNL1        0.1036
     32 C         139.9359  146.2400  161.0753 C.ar    1  UNL1        0.0399
     33 C         140.2828  145.1897  160.0622 C.ar    1  UNL1        0.0860
     34 N         140.5077  144.5332  161.3920 N.ar    1  UNL1       -0.2264
     35 C         140.8564  143.5024  162.4245 C.ar    1  UNL1        0.1653
     36 H         140.6952  143.8819  153.9638 H       1  UNL1        0.1739
     37 H         143.3845  135.8827  157.8182 H       1  UNL1        0.1498
     38 C         141.0950  146.7339  153.0990 C.3     1  UNL1        0.2543
     39 O         139.9753  146.0340  153.8105 O.3     1  UNL1       -0.4553
@<TRIPOS>BOND
     1    38    39    1
     2    39     1    1
     3     1     2   ar
     4     2     3   ar
     5     3     4   ar
     6     4     5   ar
     7     5     6   ar
     8     6     7    1
     9     7     8    1
    10     8     9    2
    11     8    10    2
    12     8    11    1
    13    11    12   ar
    14    12    13   ar
    15    13    14   ar
    16    14    15   ar
    17    15    16   ar
    18    15    17    1
    19    17    18    2
    20    17    19   am
    21    19    20    1
    22    20    21    1
    23    21    22    1
    24    22    23   ar
    25    23    24   ar
    26    24    25   ar
    27    25    26   ar
    28    24    27    1
    29    27    28   ar
    30    28    29   ar
    31    29    30   ar
    32    30    31   ar
    33    31    32   ar
    34    32    33   ar
    35    33    34   ar
    36    34    35   ar
    37     6     1   ar
    38    16    11   ar
    39    26    22   ar
    40    35    27   ar
    41    33     4    1
    42    35    30   ar
    43     7    36    1
    44    19    37    1
@<TRIPOS>MOLECULE
*****
 39 44 0 0 0
SMALL
GASTEIGER

@<TRIPOS>ATOM
      1 C         139.2442  145.8074  156.4099 C.ar    1  UNL1        0.2400
      2 N         138.6485  145.6216  155.0458 N.ar    1  UNL1       -0.2090
      3 C         138.7165  144.2822  154.3738 C.ar    1  UNL1        0.1036
      4 C         139.3068  142.9168  154.7831 C.ar    1  UNL1        0.0384
      5 C         139.4981  143.9752  155.8287 C.ar    1  UNL1        0.0236
      6 C         139.9077  144.6539  157.1020 C.ar    1  UNL1        0.1179
      7 N         140.4915  144.8793  158.4653 N.pl3   1  UNL1       -0.2104
      8 S         141.1860  144.6270  159.7706 S.O2    1  UNL1        0.0737
      9 O         140.7007  146.0370  159.6090 O.2     1  UNL1       -0.1499
     10 O         141.4906  145.5075  160.9461 O.2     1  UNL1       -0.1499
     11 C         142.0692  143.6301  161.0193 C.ar    1  UNL1        0.1253
     12 C         142.4276  144.4124  162.2479 C.ar    1  UNL1        0.0202
     13 C         143.1577  143.7450  163.3755 C.ar    1  UNL1        0.0015
     14 C         143.5295  142.2953  163.2744 C.ar    1  UNL1        0.0046
     15 C         143.1711  141.5130  162.0458 C.ar    1  UNL1        0.0547
     16 C         142.4410  142.1804  160.9183 C.ar    1  UNL1        0.0247
     17 C         143.5600  140.0658  161.9823 C.2     1  UNL1        0.2459
     18 O         144.2336  139.9323  163.3159 O.2     1  UNL1       -0.2701
     19 N         143.7272  138.6624  161.4798 N.am    1  UNL1       -0.2989
     20 C         143.6546  137.4549  160.5927 C.3     1  UNL1        0.1161
     21 C         143.3499  136.5744  159.4171 C.3     1  UNL1        0.1487
     22 N         142.8463  136.1161  158.0806 N.ar    1  UNL1       -0.2476
     23 C         142.1983  136.1298  156.7278 C.ar    1  UNL1        0.0968
     24 C         141.4762  136.6138  155.5055 C.ar    1  UNL1        0.0441
     25 C         141.9051  135.1767  155.5321 C.ar    1  UNL1        0.1218
     26 N         142.5996  134.9244  156.8375 N.ar    1  UNL1       -0.1676
     27 C         140.7581  137.5159  154.5460 C.ar    1  UNL1        0.0597
     28 C         140.6138  136.3942  153.5606 C.ar    1  UNL1        0.1237
     29 N         139.8885  136.9233  152.3590 N.ar    1  UNL1       -0.1621
     30 N         139.5845  138.3719  152.6017 N.ar    1  UNL1       -0.2106
     31 C         138.8736  139.9893  152.0923 C.ar    1  UNL1        0.1036
     32 C         138.7765  141.3500  152.7162 C.ar    1  UNL1        0.0399
     33 C         139.3547  141.5934  154.0787 C.ar    1  UNL1        0.0860
     34 N         139.6366  140.1483  153.7916 N.ar    1  UNL1       -0.2264
     35 C         140.1219  138.7382  153.9533 C.ar    1  UNL1        0.1653
     36 H         140.2706  145.8317  158.5807 H       1  UNL1        0.1739
     37 H         144.2054  138.2716  162.2465 H       1  UNL1        0.1498
     38 C         138.8487  148.3719  156.2809 C.3     1  UNL1        0.2543
     39 O         139.1762  147.1468  157.0818 O.3     1  UNL1       -0.4553
@<TRIPOS>BOND
     1    38    39    1
     2    39     1    1
     3     1     2   ar
     4     2     3   ar
     5     3     4   ar
     6     4     5   ar
     7     5     6   ar
     8     6     7    1
     9     7     8    1
    10     8     9    2
    11     8    10    2
    12     8    11    1
    13    11    12   ar
    14    12    13   ar
    15    13    14   ar
    16    14    15   ar
    17    15    16   ar
    18    15    17    1
    19    17    18    2
    20    17    19   am
    21    19    20    1
    22    20    21    1
    23    21    22    1
    24    22    23   ar
    25    23    24   ar
    26    24    25   ar
    27    25    26   ar
    28    24    27    1
    29    27    28   ar
    30    28    29   ar
    31    29    30   ar
    32    30    31   ar
    33    31    32   ar
    34    32    33   ar
    35    33    34   ar
    36    34    35   ar
    37     6     1   ar
    38    16    11   ar
    39    26    22   ar
    40    35    27   ar
    41    33     4    1
    42    35    30   ar
    43     7    36    1
    44    19    37    1
@<TRIPOS>MOLECULE
*****
 39 44 0 0 0
SMALL
GASTEIGER

@<TRIPOS>ATOM
      1 C         143.2680  136.7076  156.5078 C.ar    1  UNL1        0.2400
      2 N         143.3871  135.8653  157.7433 N.ar    1  UNL1       -0.2090
      3 C         143.0564  136.4501  159.0845 C.ar    1  UNL1        0.1036
      4 C         142.5773  137.8414  159.5481 C.ar    1  UNL1        0.0384
      5 C         142.7718  137.7532  158.0634 C.ar    1  UNL1        0.0236
      6 C         142.8183  138.1347  156.6135 C.ar    1  UNL1        0.1179
      7 N         142.7117  138.9447  155.3555 N.pl3   1  UNL1       -0.2104
      8 S         142.4635  140.0953  154.4257 S.O2    1  UNL1        0.0737
      9 O         142.9244  138.8481  153.7314 O.2     1  UNL1       -0.1499
     10 O         142.5857  140.2439  152.9382 O.2     1  UNL1       -0.1499
     11 C         141.9905  141.8013  153.9799 C.ar    1  UNL1        0.1253
     12 C         142.0751  142.0672  152.5061 C.ar    1  UNL1        0.0202
     13 C         141.7205  143.4213  151.9668 C.ar    1  UNL1        0.0015
     14 C         141.2814  144.5093  152.9013 C.ar    1  UNL1        0.0046
     15 C         141.1968  144.2433  154.3751 C.ar    1  UNL1        0.0547
     16 C         141.5513  142.8893  154.9144 C.ar    1  UNL1        0.0247
     17 C         140.7535  145.3567  155.2773 C.2     1  UNL1        0.2459
     18 O         140.5388  146.4327  154.2544 O.2     1  UNL1       -0.2701
     19 N         140.3809  146.1160  156.5160 N.am    1  UNL1       -0.2989
     20 C         140.1194  146.4387  157.9574 C.3     1  UNL1        0.1161
     21 C         139.9972  146.2901  159.4451 C.3     1  UNL1        0.1487
     22 N         140.0277  145.6861  160.8178 N.ar    1  UNL1       -0.2476
     23 C         140.2076  144.6922  161.9267 C.ar    1  UNL1        0.0968
     24 C         140.5172  143.4163  162.6519 C.ar    1  UNL1        0.0441
     25 C         140.0654  144.5870  163.4736 C.ar    1  UNL1        0.1218
     26 N         139.8173  145.7376  162.5438 N.ar    1  UNL1       -0.1676
     27 C         140.9232  141.9963  162.9146 C.ar    1  UNL1        0.0597
     28 C         140.7011  142.1790  164.3868 C.ar    1  UNL1        0.1237
     29 N         141.0221  140.8819  165.0685 N.ar    1  UNL1       -0.1621
     30 N         141.4426  139.8977  164.0176 N.ar    1  UNL1       -0.2106
     31 C         142.0133  138.2317  163.4887 C.ar    1  UNL1        0.1036
     32 C         142.3568  137.5949  162.1747 C.ar    1  UNL1        0.0399
     33 C         142.2559  138.3899  160.9068 C.ar    1  UNL1        0.0860
     34 N         141.8423  139.3391  161.9921 N.ar    1  UNL1       -0.2264
     35 C         141.3814  140.5863  162.6865 C.ar    1  UNL1        0.1653
     36 H         142.9938  138.2654  154.7011 H       1  UNL1        0.1739
     37 H         140.1595  146.9862  156.1123 H       1  UNL1        0.1498
     38 C         142.6857  135.1077  154.5454 C.3     1  UNL1        0.2543
     39 O         143.5986  136.1227  155.1667 O.3     1  UNL1       -0.4553
@<TRIPOS>BOND
     1    38    39    1
     2    39     1    1
     3     1     2   ar
     4     2     3   ar
     5     3     4   ar
     6     4     5   ar
     7     5     6   ar
     8     6     7    1
     9     7     8    1
    10     8     9    2
    11     8    10    2
    12     8    11    1
    13    11    12   ar
    14    12    13   ar
    15    13    14   ar
    16    14    15   ar
    17    15    16   ar
    18    15    17    1
    19    17    18    2
    20    17    19   am
    21    19    20    1
    22    20    21    1
    23    21    22    1
    24    22    23   ar
    25    23    24   ar
    26    24    25   ar
    27    25    26   ar
    28    24    27    1
    29    27    28   ar
    30    28    29   ar
    31    29    30   ar
    32    30    31   ar
    33    31    32   ar
    34    32    33   ar
    35    33    34   ar
    36    34    35   ar
    37     6     1   ar
    38    16    11   ar
    39    26    22   ar
    40    35    27   ar
    41    33     4    1
    42    35    30   ar
    43     7    36    1
    44    19    37    1
@<TRIPOS>MOLECULE
*****
 39 44 0 0 0
SMALL
GASTEIGER

@<TRIPOS>ATOM
      1 C         142.6742  139.5763  162.2414 C.ar    1  UNL1        0.2400
      2 N         142.3916  140.8816  162.9242 N.ar    1  UNL1       -0.2090
      3 C         141.9113  142.0572  162.1257 C.ar    1  UNL1        0.1036
      4 C         141.6077  142.2719  160.6284 C.ar    1  UNL1        0.0384
      5 C         142.0746  140.8805  160.9381 C.ar    1  UNL1        0.0236
      6 C         142.4765  139.4463  160.7602 C.ar    1  UNL1        0.1179
      7 N         142.7698  138.1248  160.1140 N.pl3   1  UNL1       -0.2104
      8 S         142.9227  137.0592  159.0695 S.O2    1  UNL1        0.0737
      9 O         143.2806  136.6028  160.4528 O.2     1  UNL1       -0.1499
     10 O         143.3631  135.6269  159.1364 O.2     1  UNL1       -0.1499
     11 C         142.8624  136.3621  157.3832 C.ar    1  UNL1        0.1253
     12 C         143.2850  134.9240  157.3275 C.ar    1  UNL1        0.0202
     13 C         143.2942  134.1953  156.0165 C.ar    1  UNL1        0.0015
     14 C         142.8808  134.9047  154.7612 C.ar    1  UNL1        0.0046
     15 C         142.4581  136.3428  154.8169 C.ar    1  UNL1        0.0547
     16 C         142.4489  137.0715  156.1279 C.ar    1  UNL1        0.0247
     17 C         142.0517  137.0175  153.5403 C.2     1  UNL1        0.2459
     18 O         142.2419  135.8757  152.5862 O.2     1  UNL1       -0.2701
     19 N         141.5827  138.0679  152.5778 N.am    1  UNL1       -0.2989
     20 C         141.1019  139.3805  152.0336 C.3     1  UNL1        0.1161
     21 C         140.6615  140.8128  151.9668 C.3     1  UNL1        0.1487
     22 N         140.3091  142.2098  152.3845 N.ar    1  UNL1       -0.2476
     23 C         140.0829  143.4198  153.2416 C.ar    1  UNL1        0.0968
     24 C         140.0075  144.3120  154.4450 C.ar    1  UNL1        0.0441
     25 C         139.6192  144.9012  153.1214 C.ar    1  UNL1        0.1218
     26 N         139.7721  143.8355  152.0769 N.ar    1  UNL1       -0.1676
     27 C         140.0910  144.7895  155.8646 C.ar    1  UNL1        0.0597
     28 C         139.6170  146.1538  155.4597 C.ar    1  UNL1        0.1237
     29 N         139.5574  147.0082  156.6912 N.ar    1  UNL1       -0.1621
     30 N         139.9946  146.1719  157.8571 N.ar    1  UNL1       -0.2106
     31 C         140.3502  145.9396  159.6461 C.ar    1  UNL1        0.1036
     32 C         140.8281  144.7983  160.4940 C.ar    1  UNL1        0.0399
     33 C         141.1262  143.4698  159.8646 C.ar    1  UNL1        0.0860
     34 N         140.6824  144.3443  158.7296 N.ar    1  UNL1       -0.2264
     35 C         140.3244  144.8007  157.3462 C.ar    1  UNL1        0.1653
     36 H         143.0498  137.6147  160.9081 H       1  UNL1        0.1739
     37 H         141.6062  137.5455  151.7437 H       1  UNL1        0.1498
     38 C         142.9698  138.3794  164.5283 C.3     1  UNL1        0.2543
     39 O         143.1545  138.4008  163.0400 O.3     1  UNL1       -0.4553
@<TRIPOS>BOND
     1    38    39    1
     2    39     1    1
     3     1     2   ar
     4     2     3   ar
     5     3     4   ar
     6     4     5   ar
     7     5     6   ar
     8     6     7    1
     9     7     8    1
    10     8     9    2
    11     8    10    2
    12     8    11    1
    13    11    12   ar
    14    12    13   ar
    15    13    14   ar
    16    14    15   ar
    17    15    16   ar
    18    15    17    1
    19    17    18    2
    20    17    19   am
    21    19    20    1
    22    20    21    1
    23    21    22    1
    24    22    23   ar
    25    23    24   ar
    26    24    25   ar
    27    25    26   ar
    28    24    27    1
    29    27    28   ar
    30    28    29   ar
    31    29    30   ar
    32    30    31   ar
    33    31    32   ar
    34    32    33   ar
    35    33    34   ar
    36    34    35   ar
    37     6     1   ar
    38    16    11   ar
    39    26    22   ar
    40    35    27   ar
    41    33     4    1
    42    35    30   ar
    43     7    36    1
    44    19    37    1
@<TRIPOS>MOLECULE
*****
 39 44 0 0 0
SMALL
GASTEIGER

@<TRIPOS>ATOM
      1 C         143.8143  140.1454  162.0527 C.ar    1  UNL1        0.2400
      2 N         144.3029  138.7545  162.3300 N.ar    1  UNL1       -0.2090
      3 C         144.0703  137.6639  161.3267 C.ar    1  UNL1        0.1036
      4 C         143.3847  137.6195  159.9453 C.ar    1  UNL1        0.0384
      5 C         143.3576  138.9832  160.5695 C.ar    1  UNL1        0.0236
      6 C         143.0932  140.4457  160.7723 C.ar    1  UNL1        0.1179
      7 N         142.6200  141.8486  160.5315 N.pl3   1  UNL1       -0.2104
      8 S         141.9893  143.0398  159.8733 S.O2    1  UNL1        0.0737
      9 O         142.5903  143.3402  161.2143 O.2     1  UNL1       -0.1499
     10 O         141.8416  144.4724  160.2925 O.2     1  UNL1       -0.1499
     11 C         141.0995  143.9339  158.5535 C.ar    1  UNL1        0.1253
     12 C         140.8927  145.3864  158.8655 C.ar    1  UNL1        0.0202
     13 C         140.1775  146.2693  157.8864 C.ar    1  UNL1        0.0015
     14 C         139.6690  145.6998  156.5952 C.ar    1  UNL1        0.0046
     15 C         139.8759  144.2473  156.2832 C.ar    1  UNL1        0.0547
     16 C         140.5911  143.3643  157.2623 C.ar    1  UNL1        0.0247
     17 C         139.3530  143.7151  154.9819 C.2     1  UNL1        0.2459
     18 O         138.7558  144.9725  154.4230 O.2     1  UNL1       -0.2701
     19 N         139.0267  142.7691  153.8645 N.am    1  UNL1       -0.2989
     20 C         138.9323  141.5115  153.0522 C.3     1  UNL1        0.1161
     21 C         139.0801  140.0789  152.6331 C.3     1  UNL1        0.1487
     22 N         139.4540  138.6263  152.6523 N.ar    1  UNL1       -0.2476
     23 C         140.0136  137.3114  153.1081 C.ar    1  UNL1        0.0968
     24 C         140.6981  136.2764  153.9507 C.ar    1  UNL1        0.0441
     25 C         140.1421  135.8355  152.6292 C.ar    1  UNL1        0.1218
     26 N         139.5115  137.0268  151.9710 N.ar    1  UNL1       -0.1676
     27 C         141.4335  135.6336  155.0893 C.ar    1  UNL1        0.0597
     28 C         141.4119  134.3081  154.3875 C.ar    1  UNL1        0.1237
     29 N         142.1050  133.3079  155.2645 N.ar    1  UNL1       -0.1621
     30 N         142.5550  134.0153  156.5083 N.ar    1  UNL1       -0.2106
     31 C         143.3772  134.0439  158.1527 C.ar    1  UNL1        0.1036
     32 C         143.6376  135.0945  159.1913 C.ar    1  UNL1        0.0399
     33 C         143.1715  136.5025  158.9671 C.ar    1  UNL1        0.0860
     34 N         142.7410  135.7531  157.7411 N.ar    1  UNL1       -0.2264
     35 C         142.1400  135.4526  156.4000 C.ar    1  UNL1        0.1653
     36 H         142.9339  142.2706  161.3637 H       1  UNL1        0.1739
     37 H         138.5642  143.3900  153.2564 H       1  UNL1        0.1498
     38 C         145.4335  141.7594  163.2869 C.3     1  UNL1        0.2543
     39 O         144.0469  141.2359  163.0561 O.3     1  UNL1       -0.4553
@<TRIPOS>BOND
     1    38    39    1
     2    39     1    1
     3     1     2   ar
     4     2     3   ar
     5     3     4   ar
     6     4     5   ar
     7     5     6   ar
     8     6     7    1
     9     7     8    1
    10     8     9    2
    11     8    10    2
    12     8    11    1
    13    11    12   ar
    14    12    13   ar
    15    13    14   ar
    16    14    15   ar
    17    15    16   ar
    18    15    17    1
    19    17    18    2
    20    17    19   am
    21    19    20    1
    22    20    21    1
    23    21    22    1
    24    22    23   ar
    25    23    24   ar
    26    24    25   ar
    27    25    26   ar
    28    24    27    1
    29    27    28   ar
    30    28    29   ar
    31    29    30   ar
    32    30    31   ar
    33    31    32   ar
    34    32    33   ar
    35    33    34   ar
    36    34    35   ar
    37     6     1   ar
    38    16    11   ar
    39    26    22   ar
    40    35    27   ar
    41    33     4    1
    42    35    30   ar
    43     7    36    1
    44    19    37    1
@<TRIPOS>MOLECULE
*****
 39 44 0 0 0
SMALL
GASTEIGER

@<TRIPOS>ATOM
      1 C         139.4812  146.5029  155.9240 C.ar    1  UNL1        0.2400
      2 N         139.2453  147.4500  157.0631 N.ar    1  UNL1       -0.2090
      3 C         139.4977  147.0049  158.4731 C.ar    1  UNL1        0.1036
      4 C         139.9885  145.6825  159.0982 C.ar    1  UNL1        0.0384
      5 C         139.8987  145.6257  157.6020 C.ar    1  UNL1        0.0236
      6 C         139.9697  145.1108  156.1950 C.ar    1  UNL1        0.1179
      7 N         140.1938  144.1933  155.0296 N.pl3   1  UNL1       -0.2104
      8 S         140.5467  142.9729  154.2322 S.O2    1  UNL1        0.0737
      9 O         140.0955  144.1313  153.3929 O.2     1  UNL1       -0.1499
     10 O         140.5371  142.6831  152.7605 O.2     1  UNL1       -0.1499
     11 C         141.1075  141.2534  153.9834 C.ar    1  UNL1        0.1253
     12 C         141.1383  140.8497  152.5391 C.ar    1  UNL1        0.0202
     13 C         141.5760  139.4670  152.1561 C.ar    1  UNL1        0.0015
     14 C         141.9828  138.4881  153.2174 C.ar    1  UNL1        0.0046
     15 C         141.9519  138.8919  154.6616 C.ar    1  UNL1        0.0547
     16 C         141.5143  140.2745  155.0447 C.ar    1  UNL1        0.0247
     17 C         142.3660  137.8850  155.6934 C.2     1  UNL1        0.2459
     18 O         142.6899  136.7289  154.7942 O.2     1  UNL1       -0.2701
     19 N         142.6736  137.2586  157.0212 N.am    1  UNL1       -0.2989
     20 C         142.8412  137.0806  158.5012 C.3     1  UNL1        0.1161
     21 C         142.8507  137.3705  159.9729 C.3     1  UNL1        0.1487
     22 N         142.7011  138.0965  161.2769 N.ar    1  UNL1       -0.2476
     23 C         142.4086  139.1803  162.2718 C.ar    1  UNL1        0.0968
     24 C         142.0050  140.5042  162.8500 C.ar    1  UNL1        0.0441
     25 C         142.4353  139.4332  163.8079 C.ar    1  UNL1        0.1218
     26 N         142.7882  138.2127  163.0105 N.ar    1  UNL1       -0.1676
     27 C         141.5338  141.9249  162.9486 C.ar    1  UNL1        0.0597
     28 C         141.6551  141.8876  164.4432 C.ar    1  UNL1        0.1237
     29 N         141.2426  143.2280  164.9753 N.ar    1  UNL1       -0.1621
     30 N         140.8663  144.0936  163.8096 N.ar    1  UNL1       -0.2106
     31 C         140.2797  145.6797  163.0874 C.ar    1  UNL1        0.1036
     32 C         140.0107  146.1785  161.6986 C.ar    1  UNL1        0.0399
     33 C         140.2293  145.2748  160.5215 C.ar    1  UNL1        0.0860
     34 N         140.5951  144.4469  161.7177 N.ar    1  UNL1       -0.2264
     35 C         141.0463  143.2884  162.5570 C.ar    1  UNL1        0.1653
     36 H         139.9369  144.7975  154.2960 H       1  UNL1        0.1739
     37 H         142.9525  136.3645  156.7178 H       1  UNL1        0.1498
     38 C         139.3100  148.4036  154.1611 C.3     1  UNL1        0.2543
     39 O         139.2287  146.9480  154.5140 O.3     1  UNL1       -0.4553
@<TRIPOS>BOND
     1    38    39    1
     2    39     1    1
     3     1     2   ar
     4     2     3   ar
     5     3     4   ar
     6     4     5   ar
     7     5     6   ar
     8     6     7    1
     9     7     8    1
    10     8     9    2
    11     8    10    2
    12     8    11    1
    13    11    12   ar
    14    12    13   ar
    15    13    14   ar
    16    14    15   ar
    17    15    16   ar
    18    15    17    1
    19    17    18    2
    20    17    19   am
    21    19    20    1
    22    20    21    1
    23    21    22    1
    24    22    23   ar
    25    23    24   ar
    26    24    25   ar
    27    25    26   ar
    28    24    27    1
    29    27    28   ar
    30    28    29   ar
    31    29    30   ar
    32    30    31   ar
    33    31    32   ar
    34    32    33   ar
    35    33    34   ar
    36    34    35   ar
    37     6     1   ar
    38    16    11   ar
    39    26    22   ar
    40    35    27   ar
    41    33     4    1
    42    35    30   ar
    43     7    36    1
    44    19    37    1
@<TRIPOS>MOLECULE
*****
 39 44 0 0 0
SMALL
GASTEIGER

@<TRIPOS>ATOM
      1 C         138.0192  143.7200  153.8336 C.ar    1  UNL1        0.2400
      2 N         137.9790  145.0043  154.6077 N.ar    1  UNL1       -0.2090
      3 C         138.6410  145.0913  155.9510 C.ar    1  UNL1        0.1036
      4 C         139.4295  144.0847  156.8142 C.ar    1  UNL1        0.0384
      5 C         138.9598  143.5008  155.5148 C.ar    1  UNL1        0.0236
      6 C         138.7213  142.5229  154.4027 C.ar    1  UNL1        0.1179
      7 N         138.7397  141.2569  153.5984 N.pl3   1  UNL1       -0.2104
      8 S         139.0131  139.8399  153.1892 S.O2    1  UNL1        0.0737
      9 O         138.2260  140.6182  152.1770 O.2     1  UNL1       -0.1499
     10 O         138.6541  139.0483  151.9668 O.2     1  UNL1       -0.1499
     11 C         139.6875  138.1542  153.3801 C.ar    1  UNL1        0.1253
     12 C         139.3877  137.2664  152.2088 C.ar    1  UNL1        0.0202
     13 C         139.8694  135.8459  152.2018 C.ar    1  UNL1        0.0015
     14 C         140.6510  135.3132  153.3661 C.ar    1  UNL1        0.0046
     15 C         140.9508  136.2010  154.5373 C.ar    1  UNL1        0.0547
     16 C         140.4690  137.6215  154.5443 C.ar    1  UNL1        0.0247
     17 C         141.7349  135.6318  155.6823 C.2     1  UNL1        0.2459
     18 O         141.9464  134.2386  155.1685 O.2     1  UNL1       -0.2701
     19 N         142.4495  135.5212  156.9965 N.am    1  UNL1       -0.2989
     20 C         143.0170  135.8813  158.3376 C.3     1  UNL1        0.1161
     21 C         143.3760  136.6730  159.5600 C.3     1  UNL1        0.1487
     22 N         143.4876  137.8105  160.5315 N.ar    1  UNL1       -0.2476
     23 C         143.3396  139.1706  161.1466 C.ar    1  UNL1        0.0968
     24 C         142.9482  140.6057  161.3388 C.ar    1  UNL1        0.0441
     25 C         143.7361  139.9507  162.4343 C.ar    1  UNL1        0.1218
     26 N         144.0095  138.5338  162.0250 N.ar    1  UNL1       -0.1676
     27 C         142.3556  141.9606  161.0872 C.ar    1  UNL1        0.0597
     28 C         142.8661  142.4566  162.4075 C.ar    1  UNL1        0.1237
     29 N         142.4523  143.8907  162.5555 N.ar    1  UNL1       -0.1621
     30 N         141.6860  144.2811  161.3266 N.ar    1  UNL1       -0.2106
     31 C         140.7494  145.4982  160.3153 C.ar    1  UNL1        0.1036
     32 C         140.0708  145.4686  158.9779 C.ar    1  UNL1        0.0399
     33 C         140.0794  144.2112  158.1602 C.ar    1  UNL1        0.0860
     34 N         140.8391  143.8666  159.4069 N.ar    1  UNL1       -0.2264
     35 C         141.6263  143.0883  160.4191 C.ar    1  UNL1        0.1653
     36 H         138.2313  141.5578  152.8109 H       1  UNL1        0.1739
     37 H         142.7426  134.5829  156.9432 H       1  UNL1        0.1498
     38 C         135.8621  143.5594  152.3944 C.3     1  UNL1        0.2543
     39 O         137.3572  143.6331  152.4904 O.3     1  UNL1       -0.4553
@<TRIPOS>BOND
     1    38    39    1
     2    39     1    1
     3     1     2   ar
     4     2     3   ar
     5     3     4   ar
     6     4     5   ar
     7     5     6   ar
     8     6     7    1
     9     7     8    1
    10     8     9    2
    11     8    10    2
    12     8    11    1
    13    11    12   ar
    14    12    13   ar
    15    13    14   ar
    16    14    15   ar
    17    15    16   ar
    18    15    17    1
    19    17    18    2
    20    17    19   am
    21    19    20    1
    22    20    21    1
    23    21    22    1
    24    22    23   ar
    25    23    24   ar
    26    24    25   ar
    27    25    26   ar
    28    24    27    1
    29    27    28   ar
    30    28    29   ar
    31    29    30   ar
    32    30    31   ar
    33    31    32   ar
    34    32    33   ar
    35    33    34   ar
    36    34    35   ar
    37     6     1   ar
    38    16    11   ar
    39    26    22   ar
    40    35    27   ar
    41    33     4    1
    42    35    30   ar
    43     7    36    1
    44    19    37    1
