@<TRIPOS>MOLECULE
*****
 38 42 0 0 0
SMALL
GASTEIGER

@<TRIPOS>ATOM
      1 C         141.1913  142.0321  161.8092 C.3     1  UNL1        0.0605
      2 C         140.9286  143.4910  161.5802 C.3     1  UNL1        0.0460
      3 C         139.6076  143.8279  162.2059 C.3     1  UNL1        0.1247
      4 O         138.6288  144.9378  162.4511 O.3     1  UNL1       -0.3557
      5 C         137.4701  144.3730  163.2182 C.3     1  UNL1        0.1426
      6 C         137.7328  142.9141  163.4472 C.3     1  UNL1        0.0431
      7 C         139.0538  142.5772  162.8216 C.3     1  UNL1        0.0977
      8 C         140.0326  141.4673  162.5764 C.3     1  UNL1        0.0271
      9 C         138.5001  141.3264  163.4372 C.2     1  UNL1        0.2274
     10 O         137.5790  140.4455  162.6464 O.2     1  UNL1       -0.2748
     11 N         138.8676  140.9566  164.8437 N.am    1  UNL1       -0.2749
     12 C         138.3139  139.7058  165.4594 C.3     1  UNL1        0.1000
     13 C         138.6814  139.3360  166.8658 C.3     1  UNL1        0.0670
     14 C         139.6026  140.2170  167.6566 C.ar    1  UNL1        0.0583
     15 N         139.9701  139.8471  169.0631 N.ar    1  UNL1       -0.2484
     16 C         140.8913  140.7280  169.8540 C.ar    1  UNL1        0.1023
     17 C         141.4450  141.9788  169.2382 C.ar    1  UNL1        0.0902
     18 C         141.0775  142.3486  167.8318 C.ar    1  UNL1        0.0040
     19 C         140.1563  141.4677  167.0410 C.ar    1  UNL1        0.0113
     20 C         139.7888  141.8375  165.6345 C.3     1  UNL1        0.1213
     21 C         142.3662  142.8598  170.0291 C.3     1  UNL1        0.4200
     22 F         143.2874  143.7407  170.8199 F       1  UNL1       -0.1658
     23 F         143.4403  141.8165  169.9401 F       1  UNL1       -0.1658
     24 F         141.2921  143.9031  170.1180 F       1  UNL1       -0.1658
     25 N         142.4004  141.2714  161.3514 N.3     1  UNL1       -0.2728
     26 C         144.5113  142.0387  162.6573 C.3     1  UNL1        0.1593
     27 C         145.6208  141.7425  163.6222 C.3     1  UNL1        0.1729
     28 O         145.7289  140.3827  164.2464 O.3     1  UNL1       -0.3511
     29 C         144.7275  139.3193  163.9055 C.3     1  UNL1        0.1437
     30 C         143.6180  139.6155  162.9405 C.3     1  UNL1        0.0506
     31 C         143.5099  140.9752  162.3164 C.3     1  UNL1        0.0898
     32 C         144.0594  144.5874  162.8805 C.3     1  UNL1        0.1742
     33 O         144.4033  143.3984  162.0332 O.3     1  UNL1       -0.3496
     34 C         142.4999  140.8070  159.9286 C.3     1  UNL1        0.0747
     35 C         143.7762  140.9995  159.1643 C.3     1  UNL1        0.0490
     36 C         144.2550  142.3836  158.8405 C.3     1  UNL1        0.1386
     37 O         143.4461  143.5747  159.2612 O.3     1  UNL1       -0.3819
     38 H         142.6028  143.5784  158.7819 H       1  UNL1        0.2104
@<TRIPOS>BOND
     1    32    33    1
     2    33    26    1
     3    26    27    1
     4    27    28    1
     5    28    29    1
     6    29    30    1
     7    30    31    1
     8    31    25    1
     9    25    34    1
    10    34    35    1
    11    35    36    1
    12    36    37    1
    13     1    25    1
    14     1     2    1
    15     3     2    1
    16     3     4    1
    17     4     5    1
    18     5     6    1
    19     6     7    1
    20     7     9    1
    21     9    10    2
    22     9    11   am
    23    11    12    1
    24    12    13    1
    25    13    14    1
    26    14    15   ar
    27    15    16   ar
    28    16    17   ar
    29    17    21    1
    30    21    22    1
    31    21    23    1
    32    21    24    1
    33    17    18   ar
    34    18    19   ar
    35    19    20    1
    36     7     8    1
    37    31    26    1
    38     8     1    1
    39     7     3    1
    40    20    11    1
    41    19    14   ar
    42    37    38    1
@<TRIPOS>MOLECULE
*****
 38 42 0 0 0
SMALL
GASTEIGER

@<TRIPOS>ATOM
      1 C         141.1783  141.9259  161.8754 C.3     1  UNL1        0.0605
      2 C         140.9233  143.3822  161.6223 C.3     1  UNL1        0.0460
      3 C         139.6023  143.7355  162.2388 C.3     1  UNL1        0.1247
      4 O         138.6283  144.8539  162.4634 O.3     1  UNL1       -0.3557
      5 C         137.4648  144.3071  163.2364 C.3     1  UNL1        0.1426
      6 C         137.7198  142.8508  163.4895 C.3     1  UNL1        0.0431
      7 C         139.0408  142.4975  162.8730 C.3     1  UNL1        0.0977
      8 C         140.0148  141.3791  162.6484 C.3     1  UNL1        0.0271
      9 C         138.4793  141.2595  163.5071 C.2     1  UNL1        0.2274
     10 O         137.5505  140.3741  162.7303 O.2     1  UNL1       -0.2748
     11 N         138.8467  140.9068  164.9180 N.am    1  UNL1       -0.2749
     12 C         138.2853  139.6688  165.5521 C.3     1  UNL1        0.1000
     13 C         138.6527  139.3162  166.9630 C.3     1  UNL1        0.0670
     14 C         139.5815  140.2016  167.7398 C.ar    1  UNL1        0.0583
     15 N         139.9489  139.8489  169.1508 N.ar    1  UNL1       -0.2484
     16 C         140.8777  140.7343  169.9275 C.ar    1  UNL1        0.1023
     17 C         141.4392  141.9723  169.2933 C.ar    1  UNL1        0.0902
     18 C         141.0718  142.3249  167.8825 C.ar    1  UNL1        0.0040
     19 C         140.1430  141.4396  167.1057 C.ar    1  UNL1        0.0113
     20 C         139.7756  141.7922  165.6948 C.3     1  UNL1        0.1213
     21 C         142.3680  142.8577  170.0701 C.3     1  UNL1        0.4200
     22 F         143.2969  143.7430  170.8469 F       1  UNL1       -0.1658
     23 F         141.3567  143.9643  170.0181 F       1  UNL1       -0.1658
     24 F         143.3793  141.7511  170.1221 F       1  UNL1       -0.1658
     25 N         142.3849  141.1521  161.4332 N.3     1  UNL1       -0.2728
     26 C         143.5057  139.7745  163.3295 C.3     1  UNL1        0.1593
     27 C         144.6477  139.5593  164.2780 C.3     1  UNL1        0.1729
     28 O         145.8109  140.5065  164.2785 O.3     1  UNL1       -0.3511
     29 C         145.8320  141.6689  163.3307 C.3     1  UNL1        0.1437
     30 C         144.6899  141.8841  162.3822 C.3     1  UNL1        0.0506
     31 C         143.5268  140.9369  162.3817 C.3     1  UNL1        0.0898
     32 C         141.8209  138.2795  164.6242 C.3     1  UNL1        0.1742
     33 O         142.3426  138.8274  163.3290 O.3     1  UNL1       -0.3496
     34 C         142.4494  140.5936  160.0426 C.3     1  UNL1        0.0747
     35 C         143.3652  139.4455  159.7372 C.3     1  UNL1        0.0490
     36 C         142.8782  138.0354  159.8939 C.3     1  UNL1        0.1386
     37 O         143.3429  137.2060  161.0540 O.3     1  UNL1       -0.3819
     38 H         144.2952  137.0407  160.9724 H       1  UNL1        0.2104
@<TRIPOS>BOND
     1    32    33    1
     2    33    26    1
     3    26    27    1
     4    27    28    1
     5    28    29    1
     6    29    30    1
     7    30    31    1
     8    31    25    1
     9    25    34    1
    10    34    35    1
    11    35    36    1
    12    36    37    1
    13     1    25    1
    14     1     2    1
    15     3     2    1
    16     3     4    1
    17     4     5    1
    18     5     6    1
    19     6     7    1
    20     7     9    1
    21     9    10    2
    22     9    11   am
    23    11    12    1
    24    12    13    1
    25    13    14    1
    26    14    15   ar
    27    15    16   ar
    28    16    17   ar
    29    17    21    1
    30    21    22    1
    31    21    23    1
    32    21    24    1
    33    17    18   ar
    34    18    19   ar
    35    19    20    1
    36     7     8    1
    37    31    26    1
    38     8     1    1
    39     7     3    1
    40    20    11    1
    41    19    14   ar
    42    37    38    1
@<TRIPOS>MOLECULE
*****
 38 42 0 0 0
SMALL
GASTEIGER

@<TRIPOS>ATOM
      1 C         140.8316  141.5618  162.4240 C.3     1  UNL1        0.0605
      2 C         139.4101  141.3318  162.0041 C.3     1  UNL1        0.0460
      3 C         139.0553  139.9108  162.3276 C.3     1  UNL1        0.1247
      4 O         137.9575  138.8903  162.2681 O.3     1  UNL1       -0.3557
      5 C         138.4813  137.6114  162.8511 C.3     1  UNL1        0.1426
      6 C         139.9029  137.8414  163.2711 C.3     1  UNL1        0.0431
      7 C         140.2576  139.2624  162.9476 C.3     1  UNL1        0.0977
      8 C         141.3554  140.2829  163.0071 C.3     1  UNL1        0.0271
      9 C         141.4599  138.6142  163.5674 C.2     1  UNL1        0.2274
     10 O         142.3006  137.6681  162.7624 O.2     1  UNL1       -0.2748
     11 N         141.8215  138.9121  164.9924 N.am    1  UNL1       -0.2749
     12 C         143.0238  138.2639  165.6123 C.3     1  UNL1        0.1000
     13 C         143.3854  138.5618  167.0373 C.3     1  UNL1        0.0670
     14 C         142.5447  139.5079  167.8423 C.ar    1  UNL1        0.0583
     15 N         142.9063  139.8058  169.2673 N.ar    1  UNL1       -0.2484
     16 C         142.0656  140.7520  170.0723 C.ar    1  UNL1        0.1023
     17 C         140.8633  141.4002  169.4524 C.ar    1  UNL1        0.0902
     18 C         140.5017  141.1023  168.0274 C.ar    1  UNL1        0.0040
     19 C         141.3424  140.1562  167.2224 C.ar    1  UNL1        0.0113
     20 C         140.9808  139.8583  165.7975 C.3     1  UNL1        0.1213
     21 C         140.0226  142.3463  170.2574 C.3     1  UNL1        0.4200
     22 F         139.1819  143.2925  171.0624 F       1  UNL1       -0.1658
     23 F         141.1715  143.3082  170.3267 F       1  UNL1       -0.1658
     24 F         138.8737  141.3844  170.1881 F       1  UNL1       -0.1658
     25 N         141.5953  142.8455  162.2853 N.3     1  UNL1       -0.2728
     26 C         140.2837  145.0809  162.4660 C.3     1  UNL1        0.1593
     27 C         139.6429  146.2677  161.8097 C.3     1  UNL1        0.1729
     28 O         139.6726  146.4059  160.3164 O.3     1  UNL1       -0.3511
     29 C         140.3433  145.3573  159.4794 C.3     1  UNL1        0.1437
     30 C         140.9842  144.1704  160.1357 C.3     1  UNL1        0.0506
     31 C         140.9544  144.0323  161.6290 C.3     1  UNL1        0.0898
     32 C         138.9409  144.8380  164.6768 C.3     1  UNL1        0.1742
     33 O         140.2540  144.9427  163.9593 O.3     1  UNL1       -0.3496
     34 C         142.9998  142.9422  162.8028 C.3     1  UNL1        0.0747
     35 C         144.1356  142.3820  161.9990 C.3     1  UNL1        0.0490
     36 C         145.0559  141.3660  162.6079 C.3     1  UNL1        0.1386
     37 O         146.4192  141.7766  163.0799 O.3     1  UNL1       -0.3819
     38 H         146.9568  142.0473  162.3192 H       1  UNL1        0.2104
@<TRIPOS>BOND
     1    32    33    1
     2    33    26    1
     3    26    27    1
     4    27    28    1
     5    28    29    1
     6    29    30    1
     7    30    31    1
     8    31    25    1
     9    25    34    1
    10    34    35    1
    11    35    36    1
    12    36    37    1
    13     1    25    1
    14     1     2    1
    15     3     2    1
    16     3     4    1
    17     4     5    1
    18     5     6    1
    19     6     7    1
    20     7     9    1
    21     9    10    2
    22     9    11   am
    23    11    12    1
    24    12    13    1
    25    13    14    1
    26    14    15   ar
    27    15    16   ar
    28    16    17   ar
    29    17    21    1
    30    21    22    1
    31    21    23    1
    32    21    24    1
    33    17    18   ar
    34    18    19   ar
    35    19    20    1
    36     7     8    1
    37    31    26    1
    38     8     1    1
    39     7     3    1
    40    20    11    1
    41    19    14   ar
    42    37    38    1
@<TRIPOS>MOLECULE
*****
 38 42 0 0 0
SMALL
GASTEIGER

@<TRIPOS>ATOM
      1 C         141.4403  141.6222  162.2864 C.3     1  UNL1        0.0605
      2 C         141.2222  143.0432  161.8585 C.3     1  UNL1        0.0460
      3 C         139.8407  143.4475  162.2803 C.3     1  UNL1        0.1247
      4 O         138.8521  144.5756  162.2765 O.3     1  UNL1       -0.3557
      5 C         137.6053  144.1016  162.9628 C.3     1  UNL1        0.1426
      6 C         137.8233  142.6806  163.3906 C.3     1  UNL1        0.0431
      7 C         139.2049  142.2763  162.9689 C.3     1  UNL1        0.0977
      8 C         140.1935  141.1482  162.9726 C.3     1  UNL1        0.0271
      9 C         138.5691  141.1052  163.6574 C.2     1  UNL1        0.2274
     10 O         137.5931  140.2393  162.9173 O.2     1  UNL1       -0.2748
     11 N         138.9094  140.7998  165.0861 N.am    1  UNL1       -0.2749
     12 C         138.2736  139.6286  165.7746 C.3     1  UNL1        0.1000
     13 C         138.6139  139.3233  167.2032 C.3     1  UNL1        0.0670
     14 C         139.5899  140.1891  167.9433 C.ar    1  UNL1        0.0583
     15 N         139.9302  139.8838  169.3720 N.ar    1  UNL1       -0.2484
     16 C         140.9062  140.7496  170.1120 C.ar    1  UNL1        0.1023
     17 C         141.5420  141.9208  169.4234 C.ar    1  UNL1        0.0902
     18 C         141.2017  142.2262  167.9948 C.ar    1  UNL1        0.0040
     19 C         140.2257  141.3603  167.2547 C.ar    1  UNL1        0.0113
     20 C         139.8854  141.6656  165.8261 C.3     1  UNL1        0.1213
     21 C         142.5180  142.7867  170.1635 C.3     1  UNL1        0.4200
     22 F         143.4940  143.6525  170.9035 F       1  UNL1       -0.1658
     23 F         143.4882  141.6442  170.2206 F       1  UNL1       -0.1658
     24 F         141.5477  143.9292  170.1063 F       1  UNL1       -0.1658
     25 N         142.6864  140.8165  162.0666 N.3     1  UNL1       -0.2728
     26 C         142.5965  138.6514  160.6334 C.3     1  UNL1        0.1593
     27 C         142.8146  137.9489  159.3261 C.3     1  UNL1        0.1729
     28 O         143.3407  138.7091  158.1448 O.3     1  UNL1       -0.3511
     29 C         143.6487  140.1717  158.2708 C.3     1  UNL1        0.1437
     30 C         143.4306  140.8742  159.5782 C.3     1  UNL1        0.0506
     31 C         142.9045  140.1140  160.7594 C.3     1  UNL1        0.0898
     32 C         140.5911  137.7819  162.0378 C.3     1  UNL1        0.1742
     33 O         142.0704  137.8913  161.8146 O.3     1  UNL1       -0.3496
     34 C         143.7143  140.7133  163.1542 C.3     1  UNL1        0.0747
     35 C         144.0581  141.9187  163.9780 C.3     1  UNL1        0.0490
     36 C         144.6719  143.1223  163.3263 C.3     1  UNL1        0.1386
     37 O         145.0222  143.0889  161.8682 O.3     1  UNL1       -0.3819
     38 H         145.7323  142.4447  161.7209 H       1  UNL1        0.2104
@<TRIPOS>BOND
     1    32    33    1
     2    33    26    1
     3    26    27    1
     4    27    28    1
     5    28    29    1
     6    29    30    1
     7    30    31    1
     8    31    25    1
     9    25    34    1
    10    34    35    1
    11    35    36    1
    12    36    37    1
    13     1    25    1
    14     1     2    1
    15     3     2    1
    16     3     4    1
    17     4     5    1
    18     5     6    1
    19     6     7    1
    20     7     9    1
    21     9    10    2
    22     9    11   am
    23    11    12    1
    24    12    13    1
    25    13    14    1
    26    14    15   ar
    27    15    16   ar
    28    16    17   ar
    29    17    21    1
    30    21    22    1
    31    21    23    1
    32    21    24    1
    33    17    18   ar
    34    18    19   ar
    35    19    20    1
    36     7     8    1
    37    31    26    1
    38     8     1    1
    39     7     3    1
    40    20    11    1
    41    19    14   ar
    42    37    38    1
@<TRIPOS>MOLECULE
*****
 38 42 0 0 0
SMALL
GASTEIGER

@<TRIPOS>ATOM
      1 C         140.0725  141.4941  161.7741 C.3     1  UNL1        0.0605
      2 C         138.9299  142.3812  161.3775 C.3     1  UNL1        0.0460
      3 C         139.3221  143.7997  161.6673 C.3     1  UNL1        0.1247
      4 O         138.8583  145.2247  161.6014 O.3     1  UNL1       -0.3557
      5 C         139.9567  146.0949  162.1364 C.3     1  UNL1        0.1426
      6 C         141.0994  145.2078  162.5331 C.3     1  UNL1        0.0431
      7 C         140.7072  143.7893  162.2432 C.3     1  UNL1        0.0977
      8 C         141.1709  142.3643  162.3092 C.3     1  UNL1        0.0271
      9 C         142.0922  143.7788  162.8190 C.2     1  UNL1        0.2274
     10 O         143.2478  144.2760  162.0021 O.2     1  UNL1       -0.2748
     11 N         142.3216  143.2711  164.2118 N.am    1  UNL1       -0.2749
     12 C         143.7066  143.2606  164.7876 C.3     1  UNL1        0.1000
     13 C         143.9359  142.7529  166.1802 C.3     1  UNL1        0.0670
     14 C         142.7803  142.2557  166.9971 C.ar    1  UNL1        0.0583
     15 N         143.0097  141.7480  168.3898 N.ar    1  UNL1       -0.2484
     16 C         141.8540  141.2507  169.2067 C.ar    1  UNL1        0.1023
     17 C         140.4690  141.2613  168.6308 C.ar    1  UNL1        0.0902
     18 C         140.2396  141.7690  167.2381 C.ar    1  UNL1        0.0040
     19 C         141.3953  142.2662  166.4213 C.ar    1  UNL1        0.0113
     20 C         141.1659  142.7739  165.0286 C.3     1  UNL1        0.1213
     21 C         139.3133  140.7641  169.4477 C.3     1  UNL1        0.4200
     22 F         138.1577  140.2668  170.2645 F       1  UNL1       -0.1658
     23 F         138.9496  139.8075  168.3509 F       1  UNL1       -0.1658
     24 F         139.6770  141.7206  170.5444 F       1  UNL1       -0.1658
     25 N         140.1102  139.9992  161.6564 N.3     1  UNL1       -0.2728
     26 C         142.3502  139.0302  162.5471 C.3     1  UNL1        0.1593
     27 C         143.6531  138.3301  162.2978 C.3     1  UNL1        0.1729
     28 O         144.0190  137.8988  160.9084 O.3     1  UNL1       -0.3511
     29 C         143.0819  138.1677  159.7684 C.3     1  UNL1        0.1437
     30 C         141.7789  138.8678  160.0178 C.3     1  UNL1        0.0506
     31 C         141.4131  139.2991  161.4071 C.3     1  UNL1        0.0898
     32 C         142.8555  139.0760  165.0951 C.3     1  UNL1        0.1742
     33 O         141.9844  139.4614  163.9364 O.3     1  UNL1       -0.3496
     34 C         138.8449  139.2044  161.7880 C.3     1  UNL1        0.0747
     35 C         138.8150  137.9798  162.6537 C.3     1  UNL1        0.0490
     36 C         138.8336  138.1164  164.1473 C.3     1  UNL1        0.1386
     37 O         139.2713  139.4055  164.7771 O.3     1  UNL1       -0.3819
     38 H         140.2110  139.5547  164.5888 H       1  UNL1        0.2104
@<TRIPOS>BOND
     1    32    33    1
     2    33    26    1
     3    26    27    1
     4    27    28    1
     5    28    29    1
     6    29    30    1
     7    30    31    1
     8    31    25    1
     9    25    34    1
    10    34    35    1
    11    35    36    1
    12    36    37    1
    13     1    25    1
    14     1     2    1
    15     3     2    1
    16     3     4    1
    17     4     5    1
    18     5     6    1
    19     6     7    1
    20     7     9    1
    21     9    10    2
    22     9    11   am
    23    11    12    1
    24    12    13    1
    25    13    14    1
    26    14    15   ar
    27    15    16   ar
    28    16    17   ar
    29    17    21    1
    30    21    22    1
    31    21    23    1
    32    21    24    1
    33    17    18   ar
    34    18    19   ar
    35    19    20    1
    36     7     8    1
    37    31    26    1
    38     8     1    1
    39     7     3    1
    40    20    11    1
    41    19    14   ar
    42    37    38    1
@<TRIPOS>MOLECULE
*****
 38 42 0 0 0
SMALL
GASTEIGER

@<TRIPOS>ATOM
      1 C         141.4439  141.1619  161.8954 C.3     1  UNL1        0.0605
      2 C         141.2447  142.5889  161.4782 C.3     1  UNL1        0.0460
      3 C         139.8969  143.0307  161.9665 C.3     1  UNL1        0.1247
      4 O         138.9409  144.1857  162.0104 O.3     1  UNL1       -0.3557
      5 C         137.7162  143.7457  162.7565 C.3     1  UNL1        0.1426
      6 C         137.9154  142.3187  163.1737 C.3     1  UNL1        0.0431
      7 C         139.2631  141.8768  162.6855 C.3     1  UNL1        0.0977
      8 C         140.2192  140.7219  162.6415 C.3     1  UNL1        0.0271
      9 C         138.6294  140.7229  163.4044 C.2     1  UNL1        0.2274
     10 O         137.7307  139.7790  162.6619 O.2     1  UNL1       -0.2748
     11 N         138.8944  140.5130  164.8659 N.am    1  UNL1       -0.2749
     12 C         138.2607  139.3591  165.5848 C.3     1  UNL1        0.1000
     13 C         138.5256  139.1492  167.0462 C.3     1  UNL1        0.0670
     14 C         139.4243  140.0932  167.7886 C.ar    1  UNL1        0.0583
     15 N         139.6893  139.8833  169.2501 N.ar    1  UNL1       -0.2484
     16 C         140.5880  140.8273  169.9925 C.ar    1  UNL1        0.1023
     17 C         141.2217  141.9812  169.2735 C.ar    1  UNL1        0.0902
     18 C         140.9567  142.1911  167.8121 C.ar    1  UNL1        0.0040
     19 C         140.0580  141.2471  167.0697 C.ar    1  UNL1        0.0113
     20 C         139.7931  141.4570  165.6083 C.3     1  UNL1        0.1213
     21 C         142.1204  142.9252  170.0160 C.3     1  UNL1        0.4200
     22 F         143.0191  143.8692  170.7584 F       1  UNL1       -0.1658
     23 F         141.0886  144.0066  169.8900 F       1  UNL1       -0.1658
     24 F         143.1522  141.8438  170.1420 F       1  UNL1       -0.1658
     25 N         142.6551  140.3223  161.6157 N.3     1  UNL1       -0.2728
     26 C         143.5392  140.5952  159.1880 C.3     1  UNL1        0.1593
     27 C         143.7609  140.0325  157.8153 C.3     1  UNL1        0.1729
     28 O         143.3204  138.6343  157.4977 O.3     1  UNL1       -0.3511
     29 C         142.6580  137.7987  158.5528 C.3     1  UNL1        0.1437
     30 C         142.4363  138.3615  159.9255 C.3     1  UNL1        0.0506
     31 C         142.8768  139.7597  160.2430 C.3     1  UNL1        0.0898
     32 C         143.7557  143.0943  158.5116 C.3     1  UNL1        0.1742
     33 O         143.9797  141.9934  159.5055 O.3     1  UNL1       -0.3496
     34 C         143.6444  140.0455  162.7086 C.3     1  UNL1        0.0747
     35 C         144.2853  141.1836  163.4461 C.3     1  UNL1        0.0490
     36 C         145.3802  141.9767  162.7963 C.3     1  UNL1        0.1386
     37 O         145.0436  143.1802  161.9668 O.3     1  UNL1       -0.3819
     38 H         144.5541  142.9019  161.1770 H       1  UNL1        0.2104
@<TRIPOS>BOND
     1    32    33    1
     2    33    26    1
     3    26    27    1
     4    27    28    1
     5    28    29    1
     6    29    30    1
     7    30    31    1
     8    31    25    1
     9    25    34    1
    10    34    35    1
    11    35    36    1
    12    36    37    1
    13     1    25    1
    14     1     2    1
    15     3     2    1
    16     3     4    1
    17     4     5    1
    18     5     6    1
    19     6     7    1
    20     7     9    1
    21     9    10    2
    22     9    11   am
    23    11    12    1
    24    12    13    1
    25    13    14    1
    26    14    15   ar
    27    15    16   ar
    28    16    17   ar
    29    17    21    1
    30    21    22    1
    31    21    23    1
    32    21    24    1
    33    17    18   ar
    34    18    19   ar
    35    19    20    1
    36     7     8    1
    37    31    26    1
    38     8     1    1
    39     7     3    1
    40    20    11    1
    41    19    14   ar
    42    37    38    1
@<TRIPOS>MOLECULE
*****
 38 42 0 0 0
SMALL
GASTEIGER

@<TRIPOS>ATOM
      1 C         140.4862  141.4850  161.5231 C.3     1  UNL1        0.0605
      2 C         139.2804  142.2881  161.1344 C.3     1  UNL1        0.0460
      3 C         139.5380  143.7191  161.5031 C.3     1  UNL1        0.1247
      4 O         138.9520  145.0998  161.4907 O.3     1  UNL1       -0.3557
      5 C         139.9548  146.0345  162.0998 C.3     1  UNL1        0.1426
      6 C         141.1606  145.2314  162.4885 C.3     1  UNL1        0.0431
      7 C         140.9030  143.8004  162.1198 C.3     1  UNL1        0.0977
      8 C         141.4890  142.4196  162.1322 C.3     1  UNL1        0.0271
      9 C         142.2679  143.8816  162.7364 C.2     1  UNL1        0.2274
     10 O         143.4199  144.4189  161.9401 O.2     1  UNL1       -0.2748
     11 N         142.4809  143.4256  164.1495 N.am    1  UNL1       -0.2749
     12 C         143.8459  143.5068  164.7661 C.3     1  UNL1        0.1000
     13 C         144.0588  143.0508  166.1791 C.3     1  UNL1        0.0670
     14 C         142.9068  142.5135  166.9755 C.ar    1  UNL1        0.0583
     15 N         143.1198  142.0574  168.3886 N.ar    1  UNL1       -0.2484
     16 C         141.9678  141.5201  169.1850 C.ar    1  UNL1        0.1023
     17 C         140.6028  141.4389  168.5682 C.ar    1  UNL1        0.0902
     18 C         140.3899  141.8949  167.1552 C.ar    1  UNL1        0.0040
     19 C         141.5419  142.4322  166.3589 C.ar    1  UNL1        0.0113
     20 C         141.3289  142.8883  164.9459 C.3     1  UNL1        0.1213
     21 C         139.4508  140.9016  169.3646 C.3     1  UNL1        0.4200
     22 F         138.2988  140.3643  170.1610 F       1  UNL1       -0.1658
     23 F         139.4343  139.6694  168.5093 F       1  UNL1       -0.1658
     24 F         139.4674  142.1337  170.2199 F       1  UNL1       -0.1658
     25 N         140.6588  140.0068  161.3358 N.3     1  UNL1       -0.2728
     26 C         141.6599  138.7158  163.3560 C.3     1  UNL1        0.1593
     27 C         141.4835  137.7866  164.5202 C.3     1  UNL1        0.1729
     28 O         140.1296  137.2191  164.8285 O.3     1  UNL1       -0.3511
     29 C         138.9522  137.5809  163.9725 C.3     1  UNL1        0.1437
     30 C         139.1286  138.5101  162.8083 C.3     1  UNL1        0.0506
     31 C         140.4825  139.0776  162.5000 C.3     1  UNL1        0.0898
     32 C         143.8213  139.9294  164.1342 C.3     1  UNL1        0.1742
     33 O         143.0138  139.2832  163.0477 O.3     1  UNL1       -0.3496
     34 C         141.0079  139.4578  159.9842 C.3     1  UNL1        0.0747
     35 C         142.1348  138.4783  159.8407 C.3     1  UNL1        0.0490
     36 C         143.5407  138.9723  159.6688 C.3     1  UNL1        0.1386
     37 O         144.5828  138.6410  160.6955 O.3     1  UNL1       -0.3819
     38 H         144.3599  139.0745  161.5341 H       1  UNL1        0.2104
@<TRIPOS>BOND
     1    32    33    1
     2    33    26    1
     3    26    27    1
     4    27    28    1
     5    28    29    1
     6    29    30    1
     7    30    31    1
     8    31    25    1
     9    25    34    1
    10    34    35    1
    11    35    36    1
    12    36    37    1
    13     1    25    1
    14     1     2    1
    15     3     2    1
    16     3     4    1
    17     4     5    1
    18     5     6    1
    19     6     7    1
    20     7     9    1
    21     9    10    2
    22     9    11   am
    23    11    12    1
    24    12    13    1
    25    13    14    1
    26    14    15   ar
    27    15    16   ar
    28    16    17   ar
    29    17    21    1
    30    21    22    1
    31    21    23    1
    32    21    24    1
    33    17    18   ar
    34    18    19   ar
    35    19    20    1
    36     7     8    1
    37    31    26    1
    38     8     1    1
    39     7     3    1
    40    20    11    1
    41    19    14   ar
    42    37    38    1
@<TRIPOS>MOLECULE
*****
 38 42 0 0 0
SMALL
GASTEIGER

@<TRIPOS>ATOM
      1 C         140.0597  141.4843  161.7361 C.3     1  UNL1        0.0605
      2 C         141.5059  141.2804  161.3942 C.3     1  UNL1        0.0460
      3 C         141.9644  140.0144  162.0553 C.3     1  UNL1        0.1247
      4 O         143.1416  139.1060  162.2526 O.3     1  UNL1       -0.3557
      5 C         142.7064  137.9661  163.1251 C.3     1  UNL1        0.1426
      6 C         141.2602  138.1700  163.4670 C.3     1  UNL1        0.0431
      7 C         140.8016  139.4359  162.8059 C.3     1  UNL1        0.0977
      8 C         139.6244  140.3444  162.6085 C.3     1  UNL1        0.0271
      9 C         139.6388  138.8575  163.5563 C.2     1  UNL1        0.2274
     10 O         138.6505  137.9797  162.8474 O.2     1  UNL1       -0.2748
     11 N         139.4644  139.1569  165.0158 N.am    1  UNL1       -0.2749
     12 C         138.3016  138.5785  165.7663 C.3     1  UNL1        0.1000
     13 C         138.1271  138.8778  167.2257 C.3     1  UNL1        0.0670
     14 C         139.1155  139.7557  167.9346 C.ar    1  UNL1        0.0583
     15 N         138.9410  140.0551  169.3941 N.ar    1  UNL1       -0.2484
     16 C         139.9294  140.9329  170.1030 C.ar    1  UNL1        0.1023
     17 C         141.0922  141.5113  169.3524 C.ar    1  UNL1        0.0902
     18 C         141.2667  141.2119  167.8930 C.ar    1  UNL1        0.0040
     19 C         140.2783  140.3341  167.1841 C.ar    1  UNL1        0.0113
     20 C         140.4527  140.0347  165.7247 C.3     1  UNL1        0.1213
     21 C         142.0806  142.3892  170.0613 C.3     1  UNL1        0.4200
     22 F         143.0690  143.2670  170.7702 F       1  UNL1       -0.1658
     23 F         142.6336  142.8338  168.7398 F       1  UNL1       -0.1658
     24 F         141.5277  141.9445  171.3829 F       1  UNL1       -0.1658
     25 N         139.1996  142.6275  161.2847 N.3     1  UNL1       -0.2728
     26 C         140.4786  144.6919  160.3614 C.3     1  UNL1        0.1593
     27 C         140.9086  145.5422  159.2030 C.3     1  UNL1        0.1729
     28 O         140.4897  145.1784  157.8093 O.3     1  UNL1       -0.3511
     29 C         139.6408  143.9643  157.5742 C.3     1  UNL1        0.1437
     30 C         139.2108  143.1140  158.7327 C.3     1  UNL1        0.0506
     31 C         139.6297  143.4778  160.1263 C.3     1  UNL1        0.0898
     32 C         142.2298  144.6076  162.2788 C.3     1  UNL1        0.1742
     33 O         140.8975  145.0557  161.7550 O.3     1  UNL1       -0.3496
     34 C         137.9096  142.9202  161.9919 C.3     1  UNL1        0.0747
     35 C         137.8107  144.0990  162.9143 C.3     1  UNL1        0.0490
     36 C         138.5907  144.1164  164.1954 C.3     1  UNL1        0.1386
     37 O         139.5044  145.2658  164.5016 O.3     1  UNL1       -0.3819
     38 H         140.2367  145.2751  163.8655 H       1  UNL1        0.2104
@<TRIPOS>BOND
     1    32    33    1
     2    33    26    1
     3    26    27    1
     4    27    28    1
     5    28    29    1
     6    29    30    1
     7    30    31    1
     8    31    25    1
     9    25    34    1
    10    34    35    1
    11    35    36    1
    12    36    37    1
    13     1    25    1
    14     1     2    1
    15     3     2    1
    16     3     4    1
    17     4     5    1
    18     5     6    1
    19     6     7    1
    20     7     9    1
    21     9    10    2
    22     9    11   am
    23    11    12    1
    24    12    13    1
    25    13    14    1
    26    14    15   ar
    27    15    16   ar
    28    16    17   ar
    29    17    21    1
    30    21    22    1
    31    21    23    1
    32    21    24    1
    33    17    18   ar
    34    18    19   ar
    35    19    20    1
    36     7     8    1
    37    31    26    1
    38     8     1    1
    39     7     3    1
    40    20    11    1
    41    19    14   ar
    42    37    38    1
@<TRIPOS>MOLECULE
*****
 38 42 0 0 0
SMALL
GASTEIGER

@<TRIPOS>ATOM
      1 C         140.5698  141.4794  161.5226 C.3     1  UNL1        0.0605
      2 C         139.3683  142.2811  161.1182 C.3     1  UNL1        0.0460
      3 C         139.6122  143.7095  161.5056 C.3     1  UNL1        0.1247
      4 O         139.0205  145.0878  161.4952 O.3     1  UNL1       -0.3557
      5 C         140.0071  146.0207  162.1326 C.3     1  UNL1        0.1426
      6 C         141.2086  145.2190  162.5370 C.3     1  UNL1        0.0431
      7 C         140.9646  143.7906  162.1496 C.3     1  UNL1        0.0977
      8 C         141.5564  142.4124  162.1600 C.3     1  UNL1        0.0271
      9 C         142.3169  143.8717  162.7935 C.2     1  UNL1        0.2274
     10 O         143.4807  144.4263  162.0266 O.2     1  UNL1       -0.2748
     11 N         142.5055  143.3982  164.2043 N.am    1  UNL1       -0.2749
     12 C         143.8578  143.4792  164.8482 C.3     1  UNL1        0.1000
     13 C         144.0463  143.0057  166.2589 C.3     1  UNL1        0.0670
     14 C         142.8825  142.4511  167.0257 C.ar    1  UNL1        0.0583
     15 N         143.0711  141.9776  168.4365 N.ar    1  UNL1       -0.2484
     16 C         141.9073  141.4230  169.2033 C.ar    1  UNL1        0.1023
     17 C         140.5550  141.3419  168.5594 C.ar    1  UNL1        0.0902
     18 C         140.3664  141.8154  167.1486 C.ar    1  UNL1        0.0040
     19 C         141.5302  142.3700  166.3818 C.ar    1  UNL1        0.0113
     20 C         141.3417  142.8436  164.9711 C.3     1  UNL1        0.1213
     21 C         139.3912  140.7873  169.3262 C.3     1  UNL1        0.4200
     22 F         138.2274  140.2327  170.0930 F       1  UNL1       -0.1658
     23 F         139.3244  139.6230  168.3828 F       1  UNL1       -0.1658
     24 F         139.4579  141.9516  170.2695 F       1  UNL1       -0.1658
     25 N         140.7527  140.0038  161.3244 N.3     1  UNL1       -0.2728
     26 C         139.3400  138.7310  163.0948 C.3     1  UNL1        0.1593
     27 C         139.2604  137.8010  164.2689 C.3     1  UNL1        0.1729
     28 O         140.5139  137.2138  164.8470 O.3     1  UNL1       -0.3511
     29 C         141.8469  137.5567  164.2508 C.3     1  UNL1        0.1437
     30 C         141.9265  138.4867  163.0766 C.3     1  UNL1        0.0506
     31 C         140.6731  139.0738  162.4986 C.3     1  UNL1        0.0898
     32 C         137.4372  138.6762  161.3267 C.3     1  UNL1        0.1742
     33 O         138.0866  139.3181  162.5167 O.3     1  UNL1       -0.3496
     34 C         141.0152  139.4583  159.9520 C.3     1  UNL1        0.0747
     35 C         142.1288  140.0230  159.1208 C.3     1  UNL1        0.0490
     36 C         143.5280  140.0507  159.6608 C.3     1  UNL1        0.1386
     37 O         144.1377  138.8033  160.2283 O.3     1  UNL1       -0.3819
     38 H         143.6588  138.5459  161.0317 H       1  UNL1        0.2104
@<TRIPOS>BOND
     1    32    33    1
     2    33    26    1
     3    26    27    1
     4    27    28    1
     5    28    29    1
     6    29    30    1
     7    30    31    1
     8    31    25    1
     9    25    34    1
    10    34    35    1
    11    35    36    1
    12    36    37    1
    13     1    25    1
    14     1     2    1
    15     3     2    1
    16     3     4    1
    17     4     5    1
    18     5     6    1
    19     6     7    1
    20     7     9    1
    21     9    10    2
    22     9    11   am
    23    11    12    1
    24    12    13    1
    25    13    14    1
    26    14    15   ar
    27    15    16   ar
    28    16    17   ar
    29    17    21    1
    30    21    22    1
    31    21    23    1
    32    21    24    1
    33    17    18   ar
    34    18    19   ar
    35    19    20    1
    36     7     8    1
    37    31    26    1
    38     8     1    1
    39     7     3    1
    40    20    11    1
    41    19    14   ar
    42    37    38    1
