@<TRIPOS>MOLECULE
*****
 24 26 0 0 0
SMALL
GASTEIGER

@<TRIPOS>ATOM
      1 C         139.9755  138.0784  164.0129 C.ar    1  UNL1        0.1386
      2 C         138.6668  138.2808  164.7174 C.ar    1  UNL1        0.0369
      3 C         138.6140  139.0774  165.9872 C.ar    1  UNL1        0.0043
      4 C         139.8698  139.6718  166.5526 C.ar    1  UNL1        0.0153
      5 C         141.1785  139.4694  165.8481 C.ar    1  UNL1        0.0043
      6 C         141.2314  138.6728  164.5783 C.ar    1  UNL1        0.0369
      7 C         139.8169  140.4685  167.8224 C.2     1  UNL1        0.0767
      8 N         139.1108  139.9165  169.0252 N.2     1  UNL1       -0.1836
      9 N         139.0578  140.7132  170.2951 N.am    1  UNL1       -0.2062
     10 C         139.7111  142.0619  170.3621 C.2     1  UNL1        0.2415
     11 O         139.6582  142.8585  171.6319 O.2     1  UNL1       -0.2734
     12 C         140.4172  142.6138  169.1593 C.3     1  UNL1        0.0931
     13 C         140.4701  141.8171  167.8895 C.3     1  UNL1        0.0570
     14 H         138.5944  140.3510  171.0845 H       1  UNL1        0.1772
     15 O         140.0285  137.2817  162.7430 O.3     1  UNL1       -0.4754
     16 C         139.9482  137.9781  161.4169 C.3     1  UNL1        0.2068
     17 C         138.8800  139.0021  161.1709 C.3     1  UNL1        0.0646
     18 C         139.2110  140.4633  161.2431 C.3     1  UNL1        0.0759
     19 C         141.3681  142.0608  163.0989 C.3     1  UNL1        0.0173
     20 C         139.8899  141.9767  163.3391 C.3     1  UNL1        0.0576
     21 C         139.1437  142.6122  164.4746 C.3     1  UNL1        0.0174
     22 C         137.6909  142.2706  164.3234 C.3     1  UNL1        0.0187
     23 C         137.5393  141.4241  163.0945 C.3     1  UNL1        0.0721
     24 N         138.8984  141.2424  162.4862 N.3     1  UNL1       -0.2738
@<TRIPOS>BOND
     1    20    19    1
     2    20    21    1
     3    21    22    1
     4    22    23    1
     5    23    24    1
     6    24    18    1
     7    18    17    1
     8    17    16    1
     9    16    15    1
    10    15     1    1
    11     1     2   ar
    12     2     3   ar
    13     3     4   ar
    14     4     7    1
    15     7     8    2
    16     8     9    1
    17     9    10   am
    18    10    11    2
    19    10    12    1
    20    12    13    1
    21     4     5   ar
    22     5     6   ar
    23    24    20    1
    24     6     1   ar
    25    13     7    1
    26     9    14    1
@<TRIPOS>MOLECULE
*****
 24 26 0 0 0
SMALL
GASTEIGER

@<TRIPOS>ATOM
      1 C         143.2375  143.5458  164.5220 C.ar    1  UNL1        0.1386
      2 C         141.7447  143.5737  164.3782 C.ar    1  UNL1        0.0369
      3 C         140.8788  142.9286  165.4194 C.ar    1  UNL1        0.0043
      4 C         141.5057  142.2557  166.6044 C.ar    1  UNL1        0.0153
      5 C         142.9985  142.2279  166.7482 C.ar    1  UNL1        0.0043
      6 C         143.8644  142.8729  165.7070 C.ar    1  UNL1        0.0369
      7 C         140.6397  141.6107  167.6456 C.2     1  UNL1        0.0767
      8 N         139.9626  140.3045  167.3537 N.2     1  UNL1       -0.1836
      9 N         139.0966  139.6594  168.3950 N.am    1  UNL1       -0.2062
     10 C         138.9078  140.3206  169.7281 C.2     1  UNL1        0.2415
     11 O         138.0419  139.6756  170.7692 O.2     1  UNL1       -0.2734
     12 C         139.5850  141.6269  170.0199 C.3     1  UNL1        0.0931
     13 C         140.4509  142.2719  168.9787 C.3     1  UNL1        0.0570
     14 H         138.6522  138.8021  168.2034 H       1  UNL1        0.1772
     15 O         144.1034  144.1909  163.4808 O.3     1  UNL1       -0.4754
     16 C         144.4644  143.4385  162.2344 C.3     1  UNL1        0.2068
     17 C         145.1270  142.0964  162.3338 C.3     1  UNL1        0.0646
     18 C         144.3148  140.8454  162.1751 C.3     1  UNL1        0.0759
     19 C         141.2393  140.1300  162.9988 C.3     1  UNL1        0.0173
     20 C         142.4698  139.7438  163.7648 C.3     1  UNL1        0.0576
     21 C         142.5026  138.9609  165.0438 C.3     1  UNL1        0.0174
     22 C         143.9366  138.8058  165.4558 C.3     1  UNL1        0.0187
     23 C         144.7900  139.4929  164.4312 C.3     1  UNL1        0.0721
     24 N         143.8835  140.0726  163.3862 N.3     1  UNL1       -0.2738
@<TRIPOS>BOND
     1    20    19    1
     2    20    21    1
     3    21    22    1
     4    22    23    1
     5    23    24    1
     6    24    18    1
     7    18    17    1
     8    17    16    1
     9    16    15    1
    10    15     1    1
    11     1     2   ar
    12     2     3   ar
    13     3     4   ar
    14     4     7    1
    15     7     8    2
    16     8     9    1
    17     9    10   am
    18    10    11    2
    19    10    12    1
    20    12    13    1
    21     4     5   ar
    22     5     6   ar
    23    24    20    1
    24     6     1   ar
    25    13     7    1
    26     9    14    1
@<TRIPOS>MOLECULE
*****
 24 26 0 0 0
SMALL
GASTEIGER

@<TRIPOS>ATOM
      1 C         138.7554  139.3231  163.9116 C.ar    1  UNL1        0.1386
      2 C         139.3593  140.6820  164.1082 C.ar    1  UNL1        0.0369
      3 C         139.6917  141.1622  165.4898 C.ar    1  UNL1        0.0043
      4 C         139.4202  140.2835  166.6748 C.ar    1  UNL1        0.0153
      5 C         138.8163  138.9246  166.4782 C.ar    1  UNL1        0.0043
      6 C         138.4839  138.4444  165.0966 C.ar    1  UNL1        0.0369
      7 C         139.7526  140.7638  168.0565 C.2     1  UNL1        0.0767
      8 N         139.3180  139.9686  169.2517 N.2     1  UNL1       -0.1836
      9 N         139.6504  140.4488  170.6334 N.am    1  UNL1       -0.2062
     10 C         140.4174  141.7244  170.8197 C.2     1  UNL1        0.2415
     11 O         140.7498  142.2047  172.2013 O.2     1  UNL1       -0.2734
     12 C         140.8520  142.5196  169.6244 C.3     1  UNL1        0.0931
     13 C         140.5196  142.0393  168.2428 C.3     1  UNL1        0.0570
     14 H         139.3651  139.9269  171.4179 H       1  UNL1        0.1772
     15 O         138.4230  138.8428  162.5300 O.3     1  UNL1       -0.4754
     16 C         139.3852  137.9609  161.7907 C.3     1  UNL1        0.2068
     17 C         140.7701  138.4508  161.4870 C.3     1  UNL1        0.0646
     18 C         141.9434  137.8972  162.2398 C.3     1  UNL1        0.0759
     19 C         143.3936  140.7748  162.7551 C.3     1  UNL1        0.0173
     20 C         142.9824  139.7929  163.8119 C.3     1  UNL1        0.0576
     21 C         143.1656  139.9613  165.2911 C.3     1  UNL1        0.0174
     22 C         142.6123  138.7427  165.9685 C.3     1  UNL1        0.0187
     23 C         142.0871  137.8211  164.9079 C.3     1  UNL1        0.0721
     24 N         142.3158  138.4702  163.5751 N.3     1  UNL1       -0.2738
@<TRIPOS>BOND
     1    20    19    1
     2    20    21    1
     3    21    22    1
     4    22    23    1
     5    23    24    1
     6    24    18    1
     7    18    17    1
     8    17    16    1
     9    16    15    1
    10    15     1    1
    11     1     2   ar
    12     2     3   ar
    13     3     4   ar
    14     4     7    1
    15     7     8    2
    16     8     9    1
    17     9    10   am
    18    10    11    2
    19    10    12    1
    20    12    13    1
    21     4     5   ar
    22     5     6   ar
    23    24    20    1
    24     6     1   ar
    25    13     7    1
    26     9    14    1
@<TRIPOS>MOLECULE
*****
 24 26 0 0 0
SMALL
GASTEIGER

@<TRIPOS>ATOM
      1 C         142.4421  139.2679  163.9222 C.ar    1  UNL1        0.1386
      2 C         141.8005  140.6097  164.1176 C.ar    1  UNL1        0.0369
      3 C         141.4912  141.0987  165.5015 C.ar    1  UNL1        0.0043
      4 C         141.8235  140.2460  166.6900 C.ar    1  UNL1        0.0153
      5 C         142.4650  138.9043  166.4946 C.ar    1  UNL1        0.0043
      6 C         142.7743  138.4153  165.1108 C.ar    1  UNL1        0.0369
      7 C         141.5141  140.7351  168.0739 C.2     1  UNL1        0.0767
      8 N         142.6273  140.9813  169.0486 N.2     1  UNL1       -0.1836
      9 N         142.3180  141.4704  170.4326 N.am    1  UNL1       -0.2062
     10 C         140.8954  141.7133  170.8417 C.2     1  UNL1        0.2415
     11 O         140.5861  142.2023  172.2255 O.2     1  UNL1       -0.2734
     12 C         139.7822  141.4671  169.8668 C.3     1  UNL1        0.0931
     13 C         140.0916  140.9780  168.4830 C.3     1  UNL1        0.0570
     14 H         143.0486  141.6320  171.0723 H       1  UNL1        0.1772
     15 O         142.7514  138.7788  162.5383 O.3     1  UNL1       -0.4754
     16 C         141.7703  137.9046  161.8151 C.3     1  UNL1        0.2068
     17 C         140.3927  138.4147  161.5116 C.3     1  UNL1        0.0646
     18 C         139.2101  137.8692  162.2558 C.3     1  UNL1        0.0759
     19 C         137.8764  140.7707  162.9280 C.3     1  UNL1        0.0173
     20 C         138.2647  139.7252  163.9310 C.3     1  UNL1        0.0576
     21 C         138.1082  139.8298  165.4192 C.3     1  UNL1        0.0174
     22 C         138.6244  138.5608  166.0300 C.3     1  UNL1        0.0187
     23 C         139.1001  137.6719  164.9193 C.3     1  UNL1        0.0721
     24 N         138.8778  138.3915  163.6221 N.3     1  UNL1       -0.2738
@<TRIPOS>BOND
     1    20    19    1
     2    20    21    1
     3    21    22    1
     4    22    23    1
     5    23    24    1
     6    24    18    1
     7    18    17    1
     8    17    16    1
     9    16    15    1
    10    15     1    1
    11     1     2   ar
    12     2     3   ar
    13     3     4   ar
    14     4     7    1
    15     7     8    2
    16     8     9    1
    17     9    10   am
    18    10    11    2
    19    10    12    1
    20    12    13    1
    21     4     5   ar
    22     5     6   ar
    23    24    20    1
    24     6     1   ar
    25    13     7    1
    26     9    14    1
@<TRIPOS>MOLECULE
*****
 24 26 0 0 0
SMALL
GASTEIGER

@<TRIPOS>ATOM
      1 C         139.5422  140.2780  163.1714 C.ar    1  UNL1        0.1386
      2 C         140.7546  141.0127  163.6612 C.ar    1  UNL1        0.0369
      3 C         140.8920  141.3464  165.1171 C.ar    1  UNL1        0.0043
      4 C         139.8169  140.9453  166.0832 C.ar    1  UNL1        0.0153
      5 C         138.6045  140.2106  165.5933 C.ar    1  UNL1        0.0043
      6 C         138.4671  139.8769  164.1374 C.ar    1  UNL1        0.0369
      7 C         139.9544  141.2790  167.5392 C.2     1  UNL1        0.0767
      8 N         140.5381  142.5968  167.9548 N.2     1  UNL1       -0.1836
      9 N         140.6756  142.9305  169.4107 N.am    1  UNL1       -0.2062
     10 C         140.2292  141.9464  170.4511 C.2     1  UNL1        0.2415
     11 O         140.3666  142.2800  171.9070 O.2     1  UNL1       -0.2734
     12 C         139.6454  140.6286  170.0355 C.3     1  UNL1        0.0931
     13 C         139.5080  140.2949  168.5795 C.3     1  UNL1        0.0570
     14 H         141.0587  143.7953  169.6835 H       1  UNL1        0.1772
     15 O         139.4047  139.9443  161.7154 O.3     1  UNL1       -0.4754
     16 C         139.6681  140.9943  160.6771 C.3     1  UNL1        0.2068
     17 C         138.8278  142.2363  160.6365 C.3     1  UNL1        0.0646
     18 C         139.3414  143.5094  161.2409 C.3     1  UNL1        0.0759
     19 C         141.2306  145.1765  163.3148 C.3     1  UNL1        0.0173
     20 C         139.8684  144.6234  163.6128 C.3     1  UNL1        0.0576
     21 C         139.1356  144.7396  164.9164 C.3     1  UNL1        0.0174
     22 C         137.8142  144.0451  164.7688 C.3     1  UNL1        0.0187
     23 C         137.7305  143.4997  163.3739 C.3     1  UNL1        0.0721
     24 N         139.0001  143.8572  162.6595 N.3     1  UNL1       -0.2738
@<TRIPOS>BOND
     1    20    19    1
     2    20    21    1
     3    21    22    1
     4    22    23    1
     5    23    24    1
     6    24    18    1
     7    18    17    1
     8    17    16    1
     9    16    15    1
    10    15     1    1
    11     1     2   ar
    12     2     3   ar
    13     3     4   ar
    14     4     7    1
    15     7     8    2
    16     8     9    1
    17     9    10   am
    18    10    11    2
    19    10    12    1
    20    12    13    1
    21     4     5   ar
    22     5     6   ar
    23    24    20    1
    24     6     1   ar
    25    13     7    1
    26     9    14    1
@<TRIPOS>MOLECULE
*****
 24 26 0 0 0
SMALL
GASTEIGER

@<TRIPOS>ATOM
      1 C         143.8803  139.5766  164.3411 C.ar    1  UNL1        0.1386
      2 C         143.5483  138.5509  165.3840 C.ar    1  UNL1        0.0369
      3 C         142.9886  138.9810  166.7075 C.ar    1  UNL1        0.0043
      4 C         142.7609  140.4368  166.9881 C.ar    1  UNL1        0.0153
      5 C         143.0928  141.4625  165.9452 C.ar    1  UNL1        0.0043
      6 C         143.6525  141.0324  164.6217 C.ar    1  UNL1        0.0369
      7 C         142.2012  140.8669  168.3117 C.2     1  UNL1        0.0767
      8 N         142.9643  140.5924  169.5735 N.2     1  UNL1       -0.1836
      9 N         142.4046  141.0225  170.8971 N.am    1  UNL1       -0.2062
     10 C         141.0818  141.7270  170.9588 C.2     1  UNL1        0.2415
     11 O         140.5220  142.1571  172.2823 O.2     1  UNL1       -0.2734
     12 C         140.3186  142.0014  169.6968 C.3     1  UNL1        0.0931
     13 C         140.8784  141.5714  168.3733 C.3     1  UNL1        0.0570
     14 H         142.9054  140.8424  171.7253 H       1  UNL1        0.1772
     15 O         144.4400  139.1465  163.0175 O.3     1  UNL1       -0.4754
     16 C         143.5190  138.8866  161.8625 C.3     1  UNL1        0.2068
     17 C         142.3886  137.9114  162.0092 C.3     1  UNL1        0.0646
     18 C         140.9699  138.3973  161.9772 C.3     1  UNL1        0.0759
     19 C         139.7880  137.6815  164.9335 C.3     1  UNL1        0.0173
     20 C         139.9494  139.0572  164.3579 C.3     1  UNL1        0.0576
     21 C         139.5959  140.3454  165.0402 C.3     1  UNL1        0.0174
     22 C         139.9206  141.4707  164.1029 C.3     1  UNL1        0.0187
     23 C         140.4749  140.8778  162.8415 C.3     1  UNL1        0.0721
     24 N         140.4927  139.3862  162.9990 N.3     1  UNL1       -0.2738
@<TRIPOS>BOND
     1    20    19    1
     2    20    21    1
     3    21    22    1
     4    22    23    1
     5    23    24    1
     6    24    18    1
     7    18    17    1
     8    17    16    1
     9    16    15    1
    10    15     1    1
    11     1     2   ar
    12     2     3   ar
    13     3     4   ar
    14     4     7    1
    15     7     8    2
    16     8     9    1
    17     9    10   am
    18    10    11    2
    19    10    12    1
    20    12    13    1
    21     4     5   ar
    22     5     6   ar
    23    24    20    1
    24     6     1   ar
    25    13     7    1
    26     9    14    1
@<TRIPOS>MOLECULE
*****
 24 26 0 0 0
SMALL
GASTEIGER

@<TRIPOS>ATOM
      1 C         138.4873  139.0225  163.7303 C.ar    1  UNL1        0.1386
      2 C         138.4605  140.4965  164.0068 C.ar    1  UNL1        0.0369
      3 C         138.8166  141.0103  165.3703 C.ar    1  UNL1        0.0043
      4 C         139.1995  140.0501  166.4573 C.ar    1  UNL1        0.0153
      5 C         139.2263  138.5761  166.1807 C.ar    1  UNL1        0.0043
      6 C         138.8702  138.0623  164.8173 C.ar    1  UNL1        0.0369
      7 C         139.5556  140.5641  167.8208 C.2     1  UNL1        0.0767
      8 N         139.0421  139.8638  169.0439 N.2     1  UNL1       -0.1836
      9 N         139.3982  140.3778  170.4074 N.am    1  UNL1       -0.2062
     10 C         140.2677  141.5919  170.5478 C.2     1  UNL1        0.2415
     11 O         140.6238  142.1058  171.9113 O.2     1  UNL1       -0.2734
     12 C         140.7812  142.2921  169.3246 C.3     1  UNL1        0.0931
     13 C         140.4251  141.7782  167.9612 C.3     1  UNL1        0.0570
     14 H         139.0611  139.9182  171.2102 H       1  UNL1        0.1772
     15 O         138.1312  138.5086  162.3668 O.3     1  UNL1       -0.4754
     16 C         139.1986  138.3403  161.3264 C.3     1  UNL1        0.2068
     17 C         139.8660  139.5463  160.7347 C.3     1  UNL1        0.0646
     18 C         141.3109  139.8232  161.0273 C.3     1  UNL1        0.0759
     19 C         142.2502  138.0682  163.6133 C.3     1  UNL1        0.0173
     20 C         142.1455  139.5633  163.5533 C.3     1  UNL1        0.0576
     21 C         142.4542  140.5143  164.6715 C.3     1  UNL1        0.0174
     22 C         142.2132  141.9087  164.1740 C.3     1  UNL1        0.0187
     23 C         141.7556  141.8195  162.7483 C.3     1  UNL1        0.0721
     24 N         141.7137  140.3700  162.3647 N.3     1  UNL1       -0.2738
@<TRIPOS>BOND
     1    20    19    1
     2    20    21    1
     3    21    22    1
     4    22    23    1
     5    23    24    1
     6    24    18    1
     7    18    17    1
     8    17    16    1
     9    16    15    1
    10    15     1    1
    11     1     2   ar
    12     2     3   ar
    13     3     4   ar
    14     4     7    1
    15     7     8    2
    16     8     9    1
    17     9    10   am
    18    10    11    2
    19    10    12    1
    20    12    13    1
    21     4     5   ar
    22     5     6   ar
    23    24    20    1
    24     6     1   ar
    25    13     7    1
    26     9    14    1
@<TRIPOS>MOLECULE
*****
 24 26 0 0 0
SMALL
GASTEIGER

@<TRIPOS>ATOM
      1 C         144.2900  141.3240  164.0397 C.ar    1  UNL1        0.1386
      2 C         144.4437  142.6090  164.7981 C.ar    1  UNL1        0.0369
      3 C         143.8073  142.7642  166.1474 C.ar    1  UNL1        0.0043
      4 C         143.0170  141.6345  166.7384 C.ar    1  UNL1        0.0153
      5 C         142.8632  140.3495  165.9800 C.ar    1  UNL1        0.0043
      6 C         143.4997  140.1943  164.6306 C.ar    1  UNL1        0.0369
      7 C         142.3805  141.7898  168.0878 C.2     1  UNL1        0.0767
      8 N         143.1447  141.4203  169.3245 N.2     1  UNL1       -0.1836
      9 N         142.5082  141.5756  170.6739 N.am    1  UNL1       -0.2062
     10 C         141.1075  142.1004  170.7865 C.2     1  UNL1        0.2415
     11 O         140.4711  142.2557  172.1358 O.2     1  UNL1       -0.2734
     12 C         140.3433  142.4698  169.5497 C.3     1  UNL1        0.0931
     13 C         140.9798  142.3145  168.2004 C.3     1  UNL1        0.0570
     14 H         143.0098  141.3332  171.4856 H       1  UNL1        0.1772
     15 O         144.9265  141.1687  162.6903 O.3     1  UNL1       -0.4754
     16 C         144.8858  142.3008  161.7071 C.3     1  UNL1        0.2068
     17 C         143.7093  142.4553  160.7894 C.3     1  UNL1        0.0646
     18 C         142.5957  143.3935  161.1492 C.3     1  UNL1        0.0759
     19 C         142.0770  145.3717  163.6922 C.3     1  UNL1        0.0173
     20 C         141.4812  144.0087  163.4995 C.3     1  UNL1        0.0576
     21 C         140.5423  143.3157  164.4420 C.3     1  UNL1        0.0174
     22 C         140.2004  141.9781  163.8555 C.3     1  UNL1        0.0187
     23 C         140.9280  141.8444  162.5507 C.3     1  UNL1        0.0721
     24 N         141.7195  143.0994  162.3306 N.3     1  UNL1       -0.2738
@<TRIPOS>BOND
     1    20    19    1
     2    20    21    1
     3    21    22    1
     4    22    23    1
     5    23    24    1
     6    24    18    1
     7    18    17    1
     8    17    16    1
     9    16    15    1
    10    15     1    1
    11     1     2   ar
    12     2     3   ar
    13     3     4   ar
    14     4     7    1
    15     7     8    2
    16     8     9    1
    17     9    10   am
    18    10    11    2
    19    10    12    1
    20    12    13    1
    21     4     5   ar
    22     5     6   ar
    23    24    20    1
    24     6     1   ar
    25    13     7    1
    26     9    14    1
@<TRIPOS>MOLECULE
*****
 24 26 0 0 0
SMALL
GASTEIGER

@<TRIPOS>ATOM
      1 C         141.6245  140.8739  162.9163 C.ar    1  UNL1        0.1386
      2 C         140.9858  142.1129  163.4700 C.ar    1  UNL1        0.0369
      3 C         141.0007  142.3680  164.9480 C.ar    1  UNL1        0.0043
      4 C         141.6544  141.3839  165.8724 C.ar    1  UNL1        0.0153
      5 C         142.2931  140.1449  165.3187 C.ar    1  UNL1        0.0043
      6 C         142.2782  139.8898  163.8406 C.ar    1  UNL1        0.0369
      7 C         141.6693  141.6390  167.3505 C.2     1  UNL1        0.0767
      8 N         140.4260  141.4231  168.1614 N.2     1  UNL1       -0.1836
      9 N         140.4409  141.6782  169.6395 N.am    1  UNL1       -0.2062
     10 C         141.6991  142.1492  170.3067 C.2     1  UNL1        0.2415
     11 O         141.7140  142.4043  171.7847 O.2     1  UNL1       -0.2734
     12 C         142.9424  142.3651  169.4957 C.3     1  UNL1        0.0931
     13 C         142.9275  142.1100  168.0176 C.3     1  UNL1        0.0570
     14 H         139.6248  141.5365  170.1718 H       1  UNL1        0.1772
     15 O         141.6096  140.6188  161.4381 O.3     1  UNL1       -0.4754
     16 C         142.8257  140.9191  160.6129 C.3     1  UNL1        0.2068
     17 C         143.3059  142.3332  160.4720 C.3     1  UNL1        0.0646
     18 C         144.5379  142.7829  161.1999 C.3     1  UNL1        0.0759
     19 C         145.6538  141.2381  163.8489 C.3     1  UNL1        0.0173
     20 C         144.9497  142.5625  163.8317 C.3     1  UNL1        0.0576
     21 C         144.6349  143.4092  165.0291 C.3     1  UNL1        0.0174
     22 C         143.9274  144.6427  164.5515 C.3     1  UNL1        0.0187
     23 C         143.8050  144.5582  163.0589 C.3     1  UNL1        0.0721
     24 N         144.4368  143.2726  162.6140 N.3     1  UNL1       -0.2738
@<TRIPOS>BOND
     1    20    19    1
     2    20    21    1
     3    21    22    1
     4    22    23    1
     5    23    24    1
     6    24    18    1
     7    18    17    1
     8    17    16    1
     9    16    15    1
    10    15     1    1
    11     1     2   ar
    12     2     3   ar
    13     3     4   ar
    14     4     7    1
    15     7     8    2
    16     8     9    1
    17     9    10   am
    18    10    11    2
    19    10    12    1
    20    12    13    1
    21     4     5   ar
    22     5     6   ar
    23    24    20    1
    24     6     1   ar
    25    13     7    1
    26     9    14    1
