@<TRIPOS>MOLECULE
*****
 21 24 0 0 0
SMALL
GASTEIGER

@<TRIPOS>ATOM
      1 C         140.8511  143.9852  163.8881 C.ar    1  UNL1       -0.0207
      2 C         139.9170  143.3482  162.9024 C.ar    1  UNL1       -0.0027
      3 C         139.1469  142.1193  163.2852 C.ar    1  UNL1        0.0188
      4 C         139.3110  141.5273  164.6537 C.ar    1  UNL1        0.0809
      5 N         138.5409  140.2982  165.0364 N.ar    1  UNL1       -0.2497
      6 C         138.7049  139.7063  166.4049 C.ar    1  UNL1        0.0586
      7 C         139.6392  140.3433  167.3906 C.ar    1  UNL1        0.0147
      8 C         140.4092  141.5723  167.0078 C.ar    1  UNL1        0.0027
      9 C         140.2451  142.1643  165.6393 C.ar    1  UNL1        0.0174
     10 C         141.0152  143.3932  165.2565 C.ar    1  UNL1       -0.0027
     11 C         137.9349  138.4773  166.7877 C.3     1  UNL1        0.0403
     12 C         136.8923  137.8086  167.6337 C.3     1  UNL1        0.0063
     13 C         137.6437  137.0173  166.6046 C.3     1  UNL1        0.0063
     14 C         141.6212  145.2143  163.5053 C.3     1  UNL1        0.0437
     15 C         143.1126  145.2441  163.6625 C.3     1  UNL1        0.0768
     16 C         144.6647  143.3706  165.8374 C.3     1  UNL1        0.0173
     17 C         144.6375  143.1599  164.3526 C.3     1  UNL1        0.0576
     18 C         145.3188  142.0511  163.6067 C.3     1  UNL1        0.0174
     19 C         145.0265  142.2270  162.1460 C.3     1  UNL1        0.0187
     20 C         144.1645  143.4445  161.9891 C.3     1  UNL1        0.0721
     21 N         143.9241  144.0210  163.3529 N.3     1  UNL1       -0.2737
@<TRIPOS>BOND
     1    17    16    1
     2    17    18    1
     3    18    19    1
     4    19    20    1
     5    20    21    1
     6    21    15    1
     7    15    14    1
     8    14     1    1
     9     1     2   ar
    10     2     3   ar
    11     3     4   ar
    12     4     5   ar
    13     5     6   ar
    14     6    11    1
    15    11    12    1
    16    12    13    1
    17     6     7   ar
    18     7     8   ar
    19     8     9   ar
    20     9    10   ar
    21    21    17    1
    22    10     1   ar
    23     9     4   ar
    24    13    11    1
@<TRIPOS>MOLECULE
*****
 21 24 0 0 0
SMALL
GASTEIGER

@<TRIPOS>ATOM
      1 C         143.0829  139.4476  163.8110 C.ar    1  UNL1       -0.0207
      2 C         143.6112  138.8785  165.0943 C.ar    1  UNL1       -0.0027
      3 C         143.1981  139.4769  166.4063 C.ar    1  UNL1        0.0188
      4 C         142.2567  140.6443  166.4349 C.ar    1  UNL1        0.0809
      5 N         141.8436  141.2427  167.7469 N.ar    1  UNL1       -0.2497
      6 C         140.9022  142.4102  167.7755 C.ar    1  UNL1        0.0586
      7 C         140.3739  142.9793  166.4921 C.ar    1  UNL1        0.0147
      8 C         140.7870  142.3809  165.1801 C.ar    1  UNL1        0.0027
      9 C         141.7284  141.2134  165.1515 C.ar    1  UNL1        0.0174
     10 C         142.1415  140.6151  163.8396 C.ar    1  UNL1       -0.0027
     11 C         140.4891  143.0085  169.0875 C.3     1  UNL1        0.0403
     12 C         140.3640  144.2002  169.9898 C.3     1  UNL1        0.0063
     13 C         139.8986  142.8532  170.4576 C.3     1  UNL1        0.0063
     14 C         143.4960  138.8492  162.4990 C.3     1  UNL1        0.0437
     15 C         142.6562  137.7806  161.8644 C.3     1  UNL1        0.0768
     16 C         140.8423  136.8238  164.4028 C.3     1  UNL1        0.0173
     17 C         140.3267  137.4096  163.1219 C.3     1  UNL1        0.0576
     18 C         138.8869  137.6586  162.7827 C.3     1  UNL1        0.0174
     19 C         138.8308  138.2523  161.4063 C.3     1  UNL1        0.0187
     20 C         140.2361  138.3702  160.8948 C.3     1  UNL1        0.0721
     21 N         141.1605  137.8494  161.9551 N.3     1  UNL1       -0.2737
@<TRIPOS>BOND
     1    17    16    1
     2    17    18    1
     3    18    19    1
     4    19    20    1
     5    20    21    1
     6    21    15    1
     7    15    14    1
     8    14     1    1
     9     1     2   ar
    10     2     3   ar
    11     3     4   ar
    12     4     5   ar
    13     5     6   ar
    14     6    11    1
    15    11    12    1
    16    12    13    1
    17     6     7   ar
    18     7     8   ar
    19     8     9   ar
    20     9    10   ar
    21    21    17    1
    22    10     1   ar
    23     9     4   ar
    24    13    11    1
@<TRIPOS>MOLECULE
*****
 21 24 0 0 0
SMALL
GASTEIGER

@<TRIPOS>ATOM
      1 C         138.5320  139.8985  163.2349 C.ar    1  UNL1       -0.0207
      2 C         139.0013  141.2909  162.9337 C.ar    1  UNL1       -0.0027
      3 C         139.5378  142.1562  164.0352 C.ar    1  UNL1        0.0188
      4 C         139.6051  141.6291  165.4379 C.ar    1  UNL1        0.0809
      5 N         140.1416  142.4944  166.5394 N.ar    1  UNL1       -0.2497
      6 C         140.2089  141.9673  167.9421 C.ar    1  UNL1        0.0586
      7 C         139.7396  140.5747  168.2433 C.ar    1  UNL1        0.0147
      8 C         139.2031  139.7094  167.1418 C.ar    1  UNL1        0.0027
      9 C         139.1358  140.2366  165.7391 C.ar    1  UNL1        0.0174
     10 C         138.5993  139.3713  164.6376 C.ar    1  UNL1       -0.0027
     11 C         140.7454  142.8326  169.0436 C.3     1  UNL1        0.0403
     12 C         141.8472  143.1865  169.9979 C.3     1  UNL1        0.0063
     13 C         140.5728  143.9775  169.9973 C.3     1  UNL1        0.0063
     14 C         137.9955  139.0331  162.1333 C.3     1  UNL1        0.0437
     15 C         138.8337  137.9199  161.5783 C.3     1  UNL1        0.0768
     16 C         141.0600  137.0000  163.7798 C.3     1  UNL1        0.0173
     17 C         141.3422  137.6666  162.4661 C.3     1  UNL1        0.0576
     18 C         142.6973  138.0275  161.9337 C.3     1  UNL1        0.0174
     19 C         142.5115  138.6734  160.5926 C.3     1  UNL1        0.0187
     20 C         141.0415  138.7116  160.2963 C.3     1  UNL1        0.0721
     21 N         140.3189  138.0894  161.4542 N.3     1  UNL1       -0.2737
@<TRIPOS>BOND
     1    17    16    1
     2    17    18    1
     3    18    19    1
     4    19    20    1
     5    20    21    1
     6    21    15    1
     7    15    14    1
     8    14     1    1
     9     1     2   ar
    10     2     3   ar
    11     3     4   ar
    12     4     5   ar
    13     5     6   ar
    14     6    11    1
    15    11    12    1
    16    12    13    1
    17     6     7   ar
    18     7     8   ar
    19     8     9   ar
    20     9    10   ar
    21    21    17    1
    22    10     1   ar
    23     9     4   ar
    24    13    11    1
@<TRIPOS>MOLECULE
*****
 21 24 0 0 0
SMALL
GASTEIGER

@<TRIPOS>ATOM
      1 C         142.0493  140.2671  166.7826 C.ar    1  UNL1       -0.0207
      2 C         140.6599  140.0480  166.2616 C.ar    1  UNL1       -0.0027
      3 C         140.0985  140.9635  165.2145 C.ar    1  UNL1        0.0188
      4 C         140.9265  142.0982  164.6883 C.ar    1  UNL1        0.0809
      5 N         140.3650  143.0137  163.6411 N.ar    1  UNL1       -0.2497
      6 C         141.1930  144.1484  163.1148 C.ar    1  UNL1        0.0586
      7 C         142.5825  144.3675  163.6359 C.ar    1  UNL1        0.0147
      8 C         143.1439  143.4520  164.6830 C.ar    1  UNL1        0.0027
      9 C         142.3159  142.3173  165.2092 C.ar    1  UNL1        0.0174
     10 C         142.8773  141.4018  166.2564 C.ar    1  UNL1       -0.0027
     11 C         140.6316  145.0639  162.0677 C.3     1  UNL1        0.0403
     12 C         140.5335  145.4914  160.6333 C.3     1  UNL1        0.0063
     13 C         139.7572  146.2222  161.6884 C.3     1  UNL1        0.0063
     14 C         142.6108  139.3516  167.8298 C.3     1  UNL1        0.0437
     15 C         142.3500  139.6235  169.2817 C.3     1  UNL1        0.0768
     16 C         143.9009  142.4558  169.7529 C.3     1  UNL1        0.0173
     17 C         142.4289  142.2188  169.9170 C.3     1  UNL1        0.0576
     18 C         141.4113  143.2419  170.3265 C.3     1  UNL1        0.0174
     19 C         140.0695  142.5724  170.3631 C.3     1  UNL1        0.0187
     20 C         140.2578  141.1354  169.9761 C.3     1  UNL1        0.0721
     21 N         141.7160  140.9169  169.7004 N.3     1  UNL1       -0.2737
@<TRIPOS>BOND
     1    17    16    1
     2    17    18    1
     3    18    19    1
     4    19    20    1
     5    20    21    1
     6    21    15    1
     7    15    14    1
     8    14     1    1
     9     1     2   ar
    10     2     3   ar
    11     3     4   ar
    12     4     5   ar
    13     5     6   ar
    14     6    11    1
    15    11    12    1
    16    12    13    1
    17     6     7   ar
    18     7     8   ar
    19     8     9   ar
    20     9    10   ar
    21    21    17    1
    22    10     1   ar
    23     9     4   ar
    24    13    11    1
@<TRIPOS>MOLECULE
*****
 21 24 0 0 0
SMALL
GASTEIGER

@<TRIPOS>ATOM
      1 C         142.3905  143.5909  164.5839 C.ar    1  UNL1       -0.0207
      2 C         143.0009  142.8268  165.7212 C.ar    1  UNL1       -0.0027
      3 C         142.2543  141.6842  166.3434 C.ar    1  UNL1        0.0188
      4 C         140.8973  141.3058  165.8282 C.ar    1  UNL1        0.0809
      5 N         140.1507  140.1632  166.4505 N.ar    1  UNL1       -0.2497
      6 C         138.7937  139.7847  165.9353 C.ar    1  UNL1        0.0586
      7 C         138.1834  140.5489  164.7979 C.ar    1  UNL1        0.0147
      8 C         138.9300  141.6914  164.1758 C.ar    1  UNL1        0.0027
      9 C         140.2870  142.0699  164.6909 C.ar    1  UNL1        0.0174
     10 C         141.0336  143.2124  164.0687 C.ar    1  UNL1       -0.0027
     11 C         138.0471  138.6422  166.5575 C.3     1  UNL1        0.0403
     12 C         137.1195  138.1178  167.6131 C.3     1  UNL1        0.0063
     13 C         137.6817  137.1876  166.5794 C.3     1  UNL1        0.0063
     14 C         143.1371  144.7335  163.9617 C.3     1  UNL1        0.0437
     15 C         144.1117  144.4764  162.8508 C.3     1  UNL1        0.0768
     16 C         145.7237  141.7288  163.5590 C.3     1  UNL1        0.0173
     17 C         144.7878  141.9291  162.4040 C.3     1  UNL1        0.0576
     18 C         144.4286  140.9018  161.3718 C.3     1  UNL1        0.0174
     19 C         143.4656  141.5297  160.4083 C.3     1  UNL1        0.0187
     20 C         143.2297  142.9453  160.8451 C.3     1  UNL1        0.0721
     21 N         144.0469  143.1920  162.0785 N.3     1  UNL1       -0.2737
@<TRIPOS>BOND
     1    17    16    1
     2    17    18    1
     3    18    19    1
     4    19    20    1
     5    20    21    1
     6    21    15    1
     7    15    14    1
     8    14     1    1
     9     1     2   ar
    10     2     3   ar
    11     3     4   ar
    12     4     5   ar
    13     5     6   ar
    14     6    11    1
    15    11    12    1
    16    12    13    1
    17     6     7   ar
    18     7     8   ar
    19     8     9   ar
    20     9    10   ar
    21    21    17    1
    22    10     1   ar
    23     9     4   ar
    24    13    11    1
@<TRIPOS>MOLECULE
*****
 21 24 0 0 0
SMALL
GASTEIGER

@<TRIPOS>ATOM
      1 C         142.7378  138.4836  165.3888 C.ar    1  UNL1       -0.0207
      2 C         141.5697  137.6177  165.0204 C.ar    1  UNL1       -0.0027
      3 C         141.2768  137.3274  163.5782 C.ar    1  UNL1        0.0188
      4 C         142.1520  137.9029  162.5045 C.ar    1  UNL1        0.0809
      5 N         141.8590  137.6124  161.0623 N.ar    1  UNL1       -0.2497
      6 C         142.7342  138.1879  159.9886 C.ar    1  UNL1        0.0586
      7 C         143.9023  139.0539  160.3571 C.ar    1  UNL1        0.0147
      8 C         144.1952  139.3442  161.7992 C.ar    1  UNL1        0.0027
      9 C         143.3201  138.7687  162.8729 C.ar    1  UNL1        0.0174
     10 C         143.6130  139.0591  164.3151 C.ar    1  UNL1       -0.0027
     11 C         142.4412  137.8976  158.5464 C.3     1  UNL1        0.0403
     12 C         141.6093  138.1232  157.3189 C.3     1  UNL1        0.0063
     13 C         142.7658  137.1689  157.2761 C.3     1  UNL1        0.0063
     14 C         143.0308  138.7740  166.8310 C.3     1  UNL1        0.0437
     15 C         142.5976  140.0760  167.4369 C.3     1  UNL1        0.0768
     16 C         139.4332  140.2570  166.6601 C.3     1  UNL1        0.0173
     17 C         139.9979  140.1916  168.0482 C.3     1  UNL1        0.0576
     18 C         139.2073  140.1979  169.3229 C.3     1  UNL1        0.0174
     19 C         140.1732  140.1185  170.4678 C.3     1  UNL1        0.0187
     20 C         141.5608  140.0632  169.9007 C.3     1  UNL1        0.0721
     21 N         141.4524  140.1084  168.4053 N.3     1  UNL1       -0.2737
@<TRIPOS>BOND
     1    17    16    1
     2    17    18    1
     3    18    19    1
     4    19    20    1
     5    20    21    1
     6    21    15    1
     7    15    14    1
     8    14     1    1
     9     1     2   ar
    10     2     3   ar
    11     3     4   ar
    12     4     5   ar
    13     5     6   ar
    14     6    11    1
    15    11    12    1
    16    12    13    1
    17     6     7   ar
    18     7     8   ar
    19     8     9   ar
    20     9    10   ar
    21    21    17    1
    22    10     1   ar
    23     9     4   ar
    24    13    11    1
@<TRIPOS>MOLECULE
*****
 21 24 0 0 0
SMALL
GASTEIGER

@<TRIPOS>ATOM
      1 C         139.3304  138.5038  164.0142 C.ar    1  UNL1       -0.0207
      2 C         138.5784  138.4147  165.3090 C.ar    1  UNL1       -0.0027
      3 C         139.1031  139.1095  166.5304 C.ar    1  UNL1        0.0188
      4 C         140.3799  139.8933  166.4570 C.ar    1  UNL1        0.0809
      5 N         140.9046  140.5882  167.6785 N.ar    1  UNL1       -0.2497
      6 C         142.1814  141.3721  167.6051 C.ar    1  UNL1        0.0586
      7 C         142.9334  141.4611  166.3102 C.ar    1  UNL1        0.0147
      8 C         142.4087  140.7663  165.0888 C.ar    1  UNL1        0.0027
      9 C         141.1319  139.9824  165.1622 C.ar    1  UNL1        0.0174
     10 C         140.6071  139.2876  163.9408 C.ar    1  UNL1       -0.0027
     11 C         142.7062  142.0669  168.8265 C.3     1  UNL1        0.0403
     12 C         142.4859  142.9748  169.9999 C.3     1  UNL1        0.0063
     13 C         143.8354  142.3623  169.7685 C.3     1  UNL1        0.0063
     14 C         138.8056  137.8089  162.7927 C.3     1  UNL1        0.0437
     15 C         137.7895  138.4872  161.9224 C.3     1  UNL1        0.0768
     16 C         137.3073  141.4531  163.1952 C.3     1  UNL1        0.0173
     17 C         137.8974  141.1570  161.8483 C.3     1  UNL1        0.0576
     18 C         138.3695  142.1722  160.8500 C.3     1  UNL1        0.0174
     19 C         138.8829  141.4363  159.6479 C.3     1  UNL1        0.0187
     20 C         138.7281  139.9662  159.9034 C.3     1  UNL1        0.0721
     21 N         138.1191  139.7937  161.2633 N.3     1  UNL1       -0.2737
@<TRIPOS>BOND
     1    17    16    1
     2    17    18    1
     3    18    19    1
     4    19    20    1
     5    20    21    1
     6    21    15    1
     7    15    14    1
     8    14     1    1
     9     1     2   ar
    10     2     3   ar
    11     3     4   ar
    12     4     5   ar
    13     5     6   ar
    14     6    11    1
    15    11    12    1
    16    12    13    1
    17     6     7   ar
    18     7     8   ar
    19     8     9   ar
    20     9    10   ar
    21    21    17    1
    22    10     1   ar
    23     9     4   ar
    24    13    11    1
@<TRIPOS>MOLECULE
*****
 21 24 0 0 0
SMALL
GASTEIGER

@<TRIPOS>ATOM
      1 C         138.5263  139.2188  163.5889 C.ar    1  UNL1       -0.0207
      2 C         138.5526  138.3803  164.8324 C.ar    1  UNL1       -0.0027
      3 C         138.9837  138.9849  166.1356 C.ar    1  UNL1        0.0188
      4 C         139.3883  140.4280  166.1955 C.ar    1  UNL1        0.0809
      5 N         139.8194  141.0327  167.4989 N.ar    1  UNL1       -0.2497
      6 C         140.2240  142.4758  167.5587 C.ar    1  UNL1        0.0586
      7 C         140.1976  143.3143  166.3152 C.ar    1  UNL1        0.0147
      8 C         139.7666  142.7097  165.0119 C.ar    1  UNL1        0.0027
      9 C         139.3619  141.2666  164.9521 C.ar    1  UNL1        0.0174
     10 C         138.9309  140.6619  163.6488 C.ar    1  UNL1       -0.0027
     11 C         140.6550  143.0804  168.8620 C.3     1  UNL1        0.0403
     12 C         140.4281  144.0536  169.9807 C.3     1  UNL1        0.0063
     13 C         141.6286  143.1545  170.0007 C.3     1  UNL1        0.0063
     14 C         138.0952  138.6142  162.2856 C.3     1  UNL1        0.0437
     15 C         139.1058  137.9569  161.3931 C.3     1  UNL1        0.0768
     16 C         141.2823  136.8975  163.5817 C.3     1  UNL1        0.0173
     17 C         141.5489  137.8739  162.4746 C.3     1  UNL1        0.0576
     18 C         142.8627  138.5347  162.1792 C.3     1  UNL1        0.0174
     19 C         142.6742  139.4301  160.9905 C.3     1  UNL1        0.0187
     20 C         141.2439  139.3226  160.5514 C.3     1  UNL1        0.0721
     21 N         140.5485  138.3608  161.4686 N.3     1  UNL1       -0.2737
@<TRIPOS>BOND
     1    17    16    1
     2    17    18    1
     3    18    19    1
     4    19    20    1
     5    20    21    1
     6    21    15    1
     7    15    14    1
     8    14     1    1
     9     1     2   ar
    10     2     3   ar
    11     3     4   ar
    12     4     5   ar
    13     5     6   ar
    14     6    11    1
    15    11    12    1
    16    12    13    1
    17     6     7   ar
    18     7     8   ar
    19     8     9   ar
    20     9    10   ar
    21    21    17    1
    22    10     1   ar
    23     9     4   ar
    24    13    11    1
@<TRIPOS>MOLECULE
*****
 21 24 0 0 0
SMALL
GASTEIGER

@<TRIPOS>ATOM
      1 C         139.2982  138.1928  163.5262 C.ar    1  UNL1       -0.0207
      2 C         140.7839  138.0595  163.3687 C.ar    1  UNL1       -0.0027
      3 C         141.6965  138.4721  164.4853 C.ar    1  UNL1        0.0188
      4 C         141.1234  139.0180  165.7595 C.ar    1  UNL1        0.0809
      5 N         142.0361  139.4307  166.8761 N.ar    1  UNL1       -0.2497
      6 C         141.4629  139.9766  168.1503 C.ar    1  UNL1        0.0586
      7 C         139.9771  140.1098  168.3078 C.ar    1  UNL1        0.0147
      8 C         139.0646  139.6972  167.1912 C.ar    1  UNL1        0.0027
      9 C         139.6377  139.1513  165.9170 C.ar    1  UNL1        0.0174
     10 C         138.7251  138.7387  164.8004 C.ar    1  UNL1       -0.0027
     11 C         142.3755  140.3892  169.2669 C.3     1  UNL1        0.0403
     12 C         143.0316  140.0969  170.5837 C.3     1  UNL1        0.0063
     13 C         143.3002  141.3962  169.8841 C.3     1  UNL1        0.0063
     14 C         138.3855  137.7801  162.4096 C.3     1  UNL1        0.0437
     15 C         137.7493  138.8214  161.5373 C.3     1  UNL1        0.0768
     16 C         137.3081  141.6645  163.0773 C.3     1  UNL1        0.0173
     17 C         138.2713  141.4093  161.9561 C.3     1  UNL1        0.0576
     18 C         139.2008  142.4161  161.3459 C.3     1  UNL1        0.0174
     19 C         139.9781  141.7315  160.2608 C.3     1  UNL1        0.0187
     20 C         139.5289  140.3016  160.2005 C.3     1  UNL1        0.0721
     21 N         138.4741  140.1025  161.2482 N.3     1  UNL1       -0.2737
@<TRIPOS>BOND
     1    17    16    1
     2    17    18    1
     3    18    19    1
     4    19    20    1
     5    20    21    1
     6    21    15    1
     7    15    14    1
     8    14     1    1
     9     1     2   ar
    10     2     3   ar
    11     3     4   ar
    12     4     5   ar
    13     5     6   ar
    14     6    11    1
    15    11    12    1
    16    12    13    1
    17     6     7   ar
    18     7     8   ar
    19     8     9   ar
    20     9    10   ar
    21    21    17    1
    22    10     1   ar
    23     9     4   ar
    24    13    11    1
