@<TRIPOS>MOLECULE
*****
 33 36 0 0 0
SMALL
GASTEIGER

@<TRIPOS>ATOM
      1 N         141.6325  140.4319  167.4923 N.3     1  UNL1       -0.2653
      2 C         141.8890  139.6310  166.2503 C.3     1  UNL1        0.1036
      3 C         142.7087  140.2142  165.1378 C.3     1  UNL1        0.1470
      4 C         143.5285  140.7974  164.0251 C.3     1  UNL1        0.1035
      5 N         144.0918  142.1816  164.1546 N.3     1  UNL1       -0.2673
      6 C         143.8353  142.9826  165.3968 C.3     1  UNL1        0.1035
      7 C         143.0156  142.3993  166.5093 C.3     1  UNL1        0.1470
      8 C         142.1958  141.8161  167.6218 C.3     1  UNL1        0.1036
      9 O         143.2720  141.5984  165.2673 O.3     1  UNL1       -0.3530
     10 C         140.8128  139.8487  168.6050 C.3     1  UNL1        0.1202
     11 C         139.3242  140.0333  168.6162 C.3     1  UNL1        0.2226
     12 O         138.4460  139.0931  167.8450 O.3     1  UNL1       -0.4740
     13 C         138.5979  139.0500  163.3478 C.ar    1  UNL1        0.0686
     14 C         138.7865  137.7760  164.1169 C.ar    1  UNL1        0.0134
     15 C         138.7359  137.7903  165.6160 C.ar    1  UNL1        0.0376
     16 C         138.4966  139.0787  166.3460 C.ar    1  UNL1        0.1387
     17 C         138.3080  140.3526  165.5770 C.ar    1  UNL1        0.0376
     18 C         138.3587  140.3383  164.0778 C.ar    1  UNL1        0.0134
     19 N         138.6992  139.0212  160.3497 N.1     1  UNL1       -0.1908
     20 C         138.6486  139.0356  161.8488 C.1     1  UNL1        0.1004
     21 C         144.9116  142.7649  163.0421 C.3     1  UNL1        0.0913
     22 C         144.2364  143.4680  161.9020 C.3     1  UNL1        0.1087
     23 N         143.3878  144.6770  162.1634 N.3     1  UNL1       -0.1780
     24 H         143.3586  145.2098  161.2941 H       1  UNL1        0.1488
     25 S         141.9680  144.5125  162.6183 S.O2    1  UNL1        0.0603
     26 O         141.7507  143.4689  161.5630 O.2     1  UNL1       -0.1530
     27 O         142.1852  145.5561  163.6736 O.2     1  UNL1       -0.1530
     28 C         140.5481  144.3480  163.0733 C.ar    1  UNL1        0.1219
     29 C         140.1759  144.6519  164.4943 C.ar    1  UNL1        0.0199
     30 C         138.7561  144.4875  164.9493 C.ar    1  UNL1        0.0014
     31 C         137.7085  144.0192  163.9833 C.ar    1  UNL1        0.0001
     32 C         138.0807  143.7153  162.5624 C.ar    1  UNL1        0.0014
     33 C         139.5005  143.8797  162.1074 C.ar    1  UNL1        0.0199
@<TRIPOS>BOND
     1    19    20    3
     2    20    13    1
     3    13    14   ar
     4    14    15   ar
     5    15    16   ar
     6    16    12    1
     7    12    11    1
     8    11    10    1
     9    10     1    1
    10     1     2    1
    11     2     3    1
    12     3     4    1
    13     4     5    1
    14     5    21    1
    15    21    22    1
    16    22    23    1
    17    23    25    1
    18    25    26    2
    19    25    27    2
    20    25    28    1
    21    28    29   ar
    22    29    30   ar
    23    30    31   ar
    24    31    32   ar
    25    32    33   ar
    26     5     6    1
    27     6     7    1
    28     7     8    1
    29     7     9    1
    30    16    17   ar
    31    17    18   ar
    32    18    13   ar
    33     8     1    1
    34     9     3    1
    35    33    28   ar
    36    23    24    1
@<TRIPOS>MOLECULE
*****
 33 36 0 0 0
SMALL
GASTEIGER

@<TRIPOS>ATOM
      1 N         142.1493  141.7559  167.1637 N.3     1  UNL1       -0.2653
      2 C         142.7917  142.0997  165.8527 C.3     1  UNL1        0.1036
      3 C         142.0343  142.8970  164.8326 C.3     1  UNL1        0.1470
      4 C         141.2768  143.6943  163.8124 C.3     1  UNL1        0.1035
      5 N         139.8769  144.1478  164.1035 N.3     1  UNL1       -0.2673
      6 C         139.2345  143.8039  165.4146 C.3     1  UNL1        0.1035
      7 C         139.9919  143.0066  166.4347 C.3     1  UNL1        0.1470
      8 C         140.7494  142.2093  167.4548 C.3     1  UNL1        0.1036
      9 O         140.6344  143.3504  165.1236 O.3     1  UNL1       -0.3530
     10 C         142.9067  140.9585  168.1839 C.3     1  UNL1        0.1202
     11 C         142.6138  139.4984  168.3630 C.3     1  UNL1        0.2226
     12 O         143.3930  138.4767  167.5889 O.3     1  UNL1       -0.4740
     13 C         143.7557  138.8369  163.1181 C.ar    1  UNL1        0.0686
     14 C         142.4767  138.3470  163.7298 C.ar    1  UNL1        0.0134
     15 C         142.3558  138.2269  165.2200 C.ar    1  UNL1        0.0376
     16 C         143.5139  138.5967  166.0987 C.ar    1  UNL1        0.1387
     17 C         144.7929  139.0866  165.4871 C.ar    1  UNL1        0.0376
     18 C         144.9138  139.2067  163.9967 C.ar    1  UNL1        0.0134
     19 N         143.9975  139.0770  160.1376 N.1     1  UNL1       -0.1908
     20 C         143.8766  138.9570  161.6278 C.1     1  UNL1        0.1004
     21 C         139.1195  144.9450  163.0834 C.3     1  UNL1        0.0913
     22 C         137.7908  144.4577  162.5862 C.3     1  UNL1        0.1087
     23 N         137.7182  143.2459  161.7052 N.3     1  UNL1       -0.1780
     24 H         138.3855  143.3922  160.9477 H       1  UNL1        0.1488
     25 S         138.0002  141.8870  162.2742 S.O2    1  UNL1        0.0603
     26 O         136.9048  142.0811  163.2804 O.2     1  UNL1       -0.1530
     27 O         139.0956  141.6929  161.2681 O.2     1  UNL1       -0.1530
     28 C         138.2821  140.5280  162.8433 C.ar    1  UNL1        0.1219
     29 C         138.3172  140.3299  164.3297 C.ar    1  UNL1        0.0199
     30 C         138.5992  138.9710  164.8988 C.ar    1  UNL1        0.0014
     31 C         138.8461  137.8102  163.9814 C.ar    1  UNL1        0.0001
     32 C         138.8110  138.0084  162.4949 C.ar    1  UNL1        0.0014
     33 C         138.5291  139.3673  161.9259 C.ar    1  UNL1        0.0199
@<TRIPOS>BOND
     1    19    20    3
     2    20    13    1
     3    13    14   ar
     4    14    15   ar
     5    15    16   ar
     6    16    12    1
     7    12    11    1
     8    11    10    1
     9    10     1    1
    10     1     2    1
    11     2     3    1
    12     3     4    1
    13     4     5    1
    14     5    21    1
    15    21    22    1
    16    22    23    1
    17    23    25    1
    18    25    26    2
    19    25    27    2
    20    25    28    1
    21    28    29   ar
    22    29    30   ar
    23    30    31   ar
    24    31    32   ar
    25    32    33   ar
    26     5     6    1
    27     6     7    1
    28     7     8    1
    29     7     9    1
    30    16    17   ar
    31    17    18   ar
    32    18    13   ar
    33     8     1    1
    34     9     3    1
    35    33    28   ar
    36    23    24    1
@<TRIPOS>MOLECULE
*****
 33 36 0 0 0
SMALL
GASTEIGER

@<TRIPOS>ATOM
      1 N         141.6088  144.5760  161.4716 N.3     1  UNL1       -0.2653
      2 C         141.9769  144.7195  162.9187 C.3     1  UNL1        0.1036
      3 C         142.9532  143.7667  163.5422 C.3     1  UNL1        0.1470
      4 C         143.9296  142.8138  164.1659 C.3     1  UNL1        0.1035
      5 N         144.5378  141.7175  163.3424 N.3     1  UNL1       -0.2673
      6 C         144.1697  141.5740  161.8953 C.3     1  UNL1        0.1035
      7 C         143.1933  142.5268  161.2718 C.3     1  UNL1        0.1470
      8 C         142.2170  143.4796  160.6482 C.3     1  UNL1        0.1036
      9 O         143.5614  142.6703  162.7188 O.3     1  UNL1       -0.3530
     10 C         140.6324  145.5288  160.8480 C.3     1  UNL1        0.1202
     11 C         139.6716  146.2905  161.7121 C.3     1  UNL1        0.2226
     12 O         138.3588  145.6752  162.0969 O.3     1  UNL1       -0.4740
     13 C         138.2752  141.8670  164.4929 C.ar    1  UNL1        0.0686
     14 C         138.7520  143.1409  165.1254 C.ar    1  UNL1        0.0134
     15 C         138.7799  144.4102  164.3268 C.ar    1  UNL1        0.0376
     16 C         138.3310  144.4058  162.8955 C.ar    1  UNL1        0.1387
     17 C         137.8542  143.1321  162.2630 C.ar    1  UNL1        0.0376
     18 C         137.8263  141.8626  163.0616 C.ar    1  UNL1        0.0134
     19 N         138.2195  139.3283  166.0902 N.1     1  UNL1       -0.1908
     20 C         138.2473  140.5977  165.2915 C.1     1  UNL1        0.1004
     21 C         145.5141  140.7646  163.9660 C.3     1  UNL1        0.0913
     22 C         145.0755  139.3801  164.3413 C.3     1  UNL1        0.1087
     23 N         143.7603  139.1713  165.0315 N.3     1  UNL1       -0.1780
     24 H         143.6080  139.9849  165.6274 H       1  UNL1        0.1488
     25 S         142.5102  138.9864  164.2233 S.O2    1  UNL1        0.0603
     26 O         143.2991  138.2716  163.1666 O.2     1  UNL1       -0.1530
     27 O         141.7214  139.7012  165.2801 O.2     1  UNL1       -0.1530
     28 C         141.2601  138.8016  163.4152 C.ar    1  UNL1        0.1219
     29 C         140.2577  137.7588  163.8122 C.ar    1  UNL1        0.0199
     30 C         139.0076  137.5739  163.0041 C.ar    1  UNL1        0.0014
     31 C         138.7599  138.4319  161.7990 C.ar    1  UNL1        0.0001
     32 C         139.7623  139.4747  161.4019 C.ar    1  UNL1        0.0014
     33 C         141.0124  139.6596  162.2100 C.ar    1  UNL1        0.0199
@<TRIPOS>BOND
     1    19    20    3
     2    20    13    1
     3    13    14   ar
     4    14    15   ar
     5    15    16   ar
     6    16    12    1
     7    12    11    1
     8    11    10    1
     9    10     1    1
    10     1     2    1
    11     2     3    1
    12     3     4    1
    13     4     5    1
    14     5    21    1
    15    21    22    1
    16    22    23    1
    17    23    25    1
    18    25    26    2
    19    25    27    2
    20    25    28    1
    21    28    29   ar
    22    29    30   ar
    23    30    31   ar
    24    31    32   ar
    25    32    33   ar
    26     5     6    1
    27     6     7    1
    28     7     8    1
    29     7     9    1
    30    16    17   ar
    31    17    18   ar
    32    18    13   ar
    33     8     1    1
    34     9     3    1
    35    33    28   ar
    36    23    24    1
@<TRIPOS>MOLECULE
*****
 33 36 0 0 0
SMALL
GASTEIGER

@<TRIPOS>ATOM
      1 N         143.8388  139.8693  163.5207 N.3     1  UNL1       -0.2653
      2 C         144.8380  140.9119  163.1152 C.3     1  UNL1        0.1036
      3 C         144.5474  141.8187  161.9563 C.3     1  UNL1        0.1470
      4 C         144.2568  142.7256  160.7973 C.3     1  UNL1        0.1035
      5 N         142.9668  142.5899  160.0439 N.3     1  UNL1       -0.2673
      6 C         141.9675  141.5473  160.4494 C.3     1  UNL1        0.1035
      7 C         142.2582  140.6404  161.6083 C.3     1  UNL1        0.1470
      8 C         142.5488  139.7336  162.7672 C.3     1  UNL1        0.1036
      9 O         143.2575  141.6830  161.2028 O.3     1  UNL1       -0.3530
     10 C         144.1294  138.9624  164.6797 C.3     1  UNL1        0.1202
     11 C         143.0359  138.5983  165.6396 C.3     1  UNL1        0.2226
     12 O         143.2142  138.8455  167.1084 O.3     1  UNL1       -0.4740
     13 C         141.2787  142.4195  169.0398 C.ar    1  UNL1        0.0686
     14 C         141.7762  141.2864  169.8876 C.ar    1  UNL1        0.0134
     15 C         142.4213  140.0951  169.2438 C.ar    1  UNL1        0.0376
     16 C         142.5690  140.0368  167.7522 C.ar    1  UNL1        0.1387
     17 C         142.0717  141.1698  166.9044 C.ar    1  UNL1        0.0376
     18 C         141.4265  142.3612  167.5482 C.ar    1  UNL1        0.0134
     19 N         139.9885  144.8021  170.3274 N.1     1  UNL1       -0.1908
     20 C         140.6336  143.6108  169.6836 C.1     1  UNL1        0.1004
     21 C         142.6762  143.4967  158.8850 C.3     1  UNL1        0.0913
     22 C         141.7641  144.6741  159.0642 C.3     1  UNL1        0.1087
     23 N         141.7140  145.3903  160.3811 N.3     1  UNL1       -0.1780
     24 H         141.4992  146.3664  160.1775 H       1  UNL1        0.1488
     25 S         140.7488  144.9464  161.4400 S.O2    1  UNL1        0.0603
     26 O         141.8620  144.9235  162.4451 O.2     1  UNL1       -0.1530
     27 O         139.6356  144.9693  160.4350 O.2     1  UNL1       -0.1530
     28 C         139.7836  144.5025  162.4990 C.ar    1  UNL1        0.1219
     29 C         139.9716  144.9471  163.9192 C.ar    1  UNL1        0.0199
     30 C         139.0064  144.5032  164.9781 C.ar    1  UNL1        0.0014
     31 C         137.8532  143.6147  164.6168 C.ar    1  UNL1        0.0001
     32 C         137.6652  143.1700  163.1966 C.ar    1  UNL1        0.0014
     33 C         138.6303  143.6140  162.1377 C.ar    1  UNL1        0.0199
@<TRIPOS>BOND
     1    19    20    3
     2    20    13    1
     3    13    14   ar
     4    14    15   ar
     5    15    16   ar
     6    16    12    1
     7    12    11    1
     8    11    10    1
     9    10     1    1
    10     1     2    1
    11     2     3    1
    12     3     4    1
    13     4     5    1
    14     5    21    1
    15    21    22    1
    16    22    23    1
    17    23    25    1
    18    25    26    2
    19    25    27    2
    20    25    28    1
    21    28    29   ar
    22    29    30   ar
    23    30    31   ar
    24    31    32   ar
    25    32    33   ar
    26     5     6    1
    27     6     7    1
    28     7     8    1
    29     7     9    1
    30    16    17   ar
    31    17    18   ar
    32    18    13   ar
    33     8     1    1
    34     9     3    1
    35    33    28   ar
    36    23    24    1
@<TRIPOS>MOLECULE
*****
 33 36 0 0 0
SMALL
GASTEIGER

@<TRIPOS>ATOM
      1 N         140.3823  138.7649  162.5463 N.3     1  UNL1       -0.2653
      2 C         141.3894  139.1192  161.4927 C.3     1  UNL1        0.1036
      3 C         141.3207  140.4517  160.8074 C.3     1  UNL1        0.1470
      4 C         141.2520  141.7843  160.1221 C.3     1  UNL1        0.1035
      5 N         140.1762  142.7625  160.4904 N.3     1  UNL1       -0.2673
      6 C         139.1691  142.4082  161.5441 C.3     1  UNL1        0.1035
      7 C         139.2378  141.0757  162.2294 C.3     1  UNL1        0.1470
      8 C         139.3065  139.7431  162.9147 C.3     1  UNL1        0.1036
      9 O         140.2449  141.4299  161.1758 O.3     1  UNL1       -0.3530
     10 C         140.4510  137.4323  163.2317 C.3     1  UNL1        0.1202
     11 C         140.9422  137.3408  164.6460 C.3     1  UNL1        0.2226
     12 O         141.9374  138.3383  165.1604 O.3     1  UNL1       -0.4740
     13 C         141.1628  140.4985  169.0312 C.ar    1  UNL1        0.0686
     14 C         142.5274  139.9481  168.7395 C.ar    1  UNL1        0.0134
     15 C         142.7855  139.2280  167.4493 C.ar    1  UNL1        0.0376
     16 C         141.6792  139.0584  166.4506 C.ar    1  UNL1        0.1387
     17 C         140.3147  139.6087  166.7423 C.ar    1  UNL1        0.0376
     18 C         140.0564  140.3288  168.0326 C.ar    1  UNL1        0.0134
     19 N         140.6464  141.9385  171.6118 N.1     1  UNL1       -0.1908
     20 C         140.9046  141.2185  170.3215 C.1     1  UNL1        0.1004
     21 C         140.1075  144.0950  159.8052 C.3     1  UNL1        0.0913
     22 C         140.9687  145.2278  160.2798 C.3     1  UNL1        0.1087
     23 N         140.8646  145.7061  161.6976 N.3     1  UNL1       -0.1780
     24 H         139.8722  145.7148  161.9333 H       1  UNL1        0.1488
     25 S         141.5636  144.9590  162.7944 S.O2    1  UNL1        0.0603
     26 O         140.3530  145.1078  163.6674 O.2     1  UNL1       -0.1530
     27 O         142.7743  144.8102  161.9214 O.2     1  UNL1       -0.1530
     28 C         142.2628  144.2118  163.8913 C.ar    1  UNL1        0.1219
     29 C         143.7467  144.3473  164.0633 C.ar    1  UNL1        0.0199
     30 C         144.4458  143.6002  165.1601 C.ar    1  UNL1        0.0014
     31 C         143.6611  142.7176  166.0848 C.ar    1  UNL1        0.0001
     32 C         142.1771  142.5822  165.9128 C.ar    1  UNL1        0.0014
     33 C         141.4780  143.3293  164.8160 C.ar    1  UNL1        0.0199
@<TRIPOS>BOND
     1    19    20    3
     2    20    13    1
     3    13    14   ar
     4    14    15   ar
     5    15    16   ar
     6    16    12    1
     7    12    11    1
     8    11    10    1
     9    10     1    1
    10     1     2    1
    11     2     3    1
    12     3     4    1
    13     4     5    1
    14     5    21    1
    15    21    22    1
    16    22    23    1
    17    23    25    1
    18    25    26    2
    19    25    27    2
    20    25    28    1
    21    28    29   ar
    22    29    30   ar
    23    30    31   ar
    24    31    32   ar
    25    32    33   ar
    26     5     6    1
    27     6     7    1
    28     7     8    1
    29     7     9    1
    30    16    17   ar
    31    17    18   ar
    32    18    13   ar
    33     8     1    1
    34     9     3    1
    35    33    28   ar
    36    23    24    1
@<TRIPOS>MOLECULE
*****
 33 36 0 0 0
SMALL
GASTEIGER

@<TRIPOS>ATOM
      1 N         141.3919  144.7110  162.3520 N.3     1  UNL1       -0.2653
      2 C         141.7039  143.5802  161.4171 C.3     1  UNL1        0.1036
      3 C         142.7023  142.5333  161.8134 C.3     1  UNL1        0.1470
      4 C         143.7008  141.4863  162.2097 C.3     1  UNL1        0.1035
      5 N         144.3871  141.5701  163.5408 N.3     1  UNL1       -0.2673
      6 C         144.0750  142.7010  164.4757 C.3     1  UNL1        0.1035
      7 C         143.0766  143.7479  164.0794 C.3     1  UNL1        0.1470
      8 C         142.0782  144.7948  163.6831 C.3     1  UNL1        0.1036
      9 O         143.3887  142.6171  163.1446 O.3     1  UNL1       -0.3530
     10 C         140.3934  145.7580  161.9557 C.3     1  UNL1        0.1202
     11 C         138.9839  145.6804  162.4629 C.3     1  UNL1        0.2226
     12 O         138.1030  144.5358  162.0578 O.3     1  UNL1       -0.4740
     13 C         138.2056  140.6848  164.3836 C.ar    1  UNL1        0.0686
     14 C         137.8035  140.6778  162.9384 C.ar    1  UNL1        0.0134
     15 C         137.7693  141.9614  162.1632 C.ar    1  UNL1        0.0376
     16 C         138.1372  143.2522  162.8330 C.ar    1  UNL1        0.1387
     17 C         138.5392  143.2593  164.2781 C.ar    1  UNL1        0.0376
     18 C         138.5734  141.9756  165.0534 C.ar    1  UNL1        0.0134
     19 N         138.2739  138.1176  165.9341 N.1     1  UNL1       -0.1908
     20 C         138.2398  139.4012  165.1588 C.1     1  UNL1        0.1004
     21 C         145.3855  140.5232  163.9371 C.3     1  UNL1        0.0913
     22 C         144.9412  139.3182  164.7121 C.3     1  UNL1        0.1087
     23 N         143.4790  139.0151  164.8542 N.3     1  UNL1       -0.1780
     24 H         143.3646  138.0198  164.6625 H       1  UNL1        0.1488
     25 S         142.7789  139.2895  166.1520 S.O2    1  UNL1        0.0603
     26 O         143.7807  138.4370  166.8727 O.2     1  UNL1       -0.1530
     27 O         141.7770  140.1420  165.4313 O.2     1  UNL1       -0.1530
     28 C         142.0786  139.5639  167.4499 C.ar    1  UNL1        0.1219
     29 C         142.6775  139.0882  168.7403 C.ar    1  UNL1        0.0199
     30 C         141.9774  139.3626  170.0382 C.ar    1  UNL1        0.0014
     31 C         140.6784  140.1126  170.0457 C.ar    1  UNL1        0.0001
     32 C         140.0795  140.5882  168.7552 C.ar    1  UNL1        0.0014
     33 C         140.7797  140.3138  167.4574 C.ar    1  UNL1        0.0199
@<TRIPOS>BOND
     1    19    20    3
     2    20    13    1
     3    13    14   ar
     4    14    15   ar
     5    15    16   ar
     6    16    12    1
     7    12    11    1
     8    11    10    1
     9    10     1    1
    10     1     2    1
    11     2     3    1
    12     3     4    1
    13     4     5    1
    14     5    21    1
    15    21    22    1
    16    22    23    1
    17    23    25    1
    18    25    26    2
    19    25    27    2
    20    25    28    1
    21    28    29   ar
    22    29    30   ar
    23    30    31   ar
    24    31    32   ar
    25    32    33   ar
    26     5     6    1
    27     6     7    1
    28     7     8    1
    29     7     9    1
    30    16    17   ar
    31    17    18   ar
    32    18    13   ar
    33     8     1    1
    34     9     3    1
    35    33    28   ar
    36    23    24    1
@<TRIPOS>MOLECULE
*****
 33 36 0 0 0
SMALL
GASTEIGER

@<TRIPOS>ATOM
      1 N         139.4475  137.7254  164.4772 N.3     1  UNL1       -0.2653
      2 C         138.8596  137.9377  163.1136 C.3     1  UNL1        0.1036
      3 C         139.7605  138.1474  161.9329 C.3     1  UNL1        0.1470
      4 C         140.6615  138.3571  160.7520 C.3     1  UNL1        0.1035
      5 N         142.1503  138.3545  160.9347 N.3     1  UNL1       -0.2673
      6 C         142.7382  138.1422  162.2984 C.3     1  UNL1        0.1035
      7 C         141.8372  137.9325  163.4792 C.3     1  UNL1        0.1470
      8 C         140.9363  137.7228  164.6599 C.3     1  UNL1        0.1036
      9 O         141.2494  138.1448  162.1156 O.3     1  UNL1       -0.3530
     10 C         138.5465  137.5158  165.6581 C.3     1  UNL1        0.1202
     11 C         138.1215  138.6862  166.4943 C.3     1  UNL1        0.2226
     12 O         139.1145  139.7520  166.8526 O.3     1  UNL1       -0.4740
     13 C         139.6339  143.3337  164.1784 C.ar    1  UNL1        0.0686
     14 C         140.6471  143.0409  165.2451 C.ar    1  UNL1        0.0134
     15 C         140.4739  141.8470  166.1365 C.ar    1  UNL1        0.0376
     16 C         139.2877  140.9459  165.9612 C.ar    1  UNL1        0.1387
     17 C         138.2745  141.2386  164.8945 C.ar    1  UNL1        0.0376
     18 C         138.4477  142.4326  164.0031 C.ar    1  UNL1        0.0134
     19 N         139.9803  145.7215  162.3956 N.1     1  UNL1       -0.1908
     20 C         139.8071  144.5276  163.2870 C.1     1  UNL1        0.1004
     21 C         143.0513  138.5641  159.7540 C.3     1  UNL1        0.0913
     22 C         143.7396  139.8828  159.5605 C.3     1  UNL1        0.1087
     23 N         143.0146  141.1595  159.8679 N.3     1  UNL1       -0.1780
     24 H         142.0192  140.9373  159.8794 H       1  UNL1        0.1488
     25 S         143.3076  141.9012  161.1383 S.O2    1  UNL1        0.0603
     26 O         144.7174  142.1296  160.6798 O.2     1  UNL1       -0.1530
     27 O         141.8978  141.6727  161.5968 O.2     1  UNL1       -0.1530
     28 C         143.6006  142.6429  162.4088 C.ar    1  UNL1        0.1219
     29 C         144.1276  141.9049  163.6036 C.ar    1  UNL1        0.0199
     30 C         144.4205  142.6465  164.8740 C.ar    1  UNL1        0.0014
     31 C         144.1865  144.1262  164.9497 C.ar    1  UNL1        0.0001
     32 C         143.6595  144.8642  163.7549 C.ar    1  UNL1        0.0014
     33 C         143.3665  144.1225  162.4844 C.ar    1  UNL1        0.0199
@<TRIPOS>BOND
     1    19    20    3
     2    20    13    1
     3    13    14   ar
     4    14    15   ar
     5    15    16   ar
     6    16    12    1
     7    12    11    1
     8    11    10    1
     9    10     1    1
    10     1     2    1
    11     2     3    1
    12     3     4    1
    13     4     5    1
    14     5    21    1
    15    21    22    1
    16    22    23    1
    17    23    25    1
    18    25    26    2
    19    25    27    2
    20    25    28    1
    21    28    29   ar
    22    29    30   ar
    23    30    31   ar
    24    31    32   ar
    25    32    33   ar
    26     5     6    1
    27     6     7    1
    28     7     8    1
    29     7     9    1
    30    16    17   ar
    31    17    18   ar
    32    18    13   ar
    33     8     1    1
    34     9     3    1
    35    33    28   ar
    36    23    24    1
@<TRIPOS>MOLECULE
*****
 33 36 0 0 0
SMALL
GASTEIGER

@<TRIPOS>ATOM
      1 N         139.1986  138.8996  162.5372 N.3     1  UNL1       -0.2653
      2 C         138.0517  139.7044  162.0017 C.3     1  UNL1        0.1036
      3 C         138.3128  140.8739  161.0994 C.3     1  UNL1        0.1470
      4 C         138.5740  142.0434  160.1970 C.3     1  UNL1        0.1035
      5 N         139.9820  142.4079  159.8302 N.3     1  UNL1       -0.2673
      6 C         141.1289  141.6030  160.3658 C.3     1  UNL1        0.1035
      7 C         140.8678  140.4336  161.2681 C.3     1  UNL1        0.1470
      8 C         140.6066  139.2642  162.1704 C.3     1  UNL1        0.1036
      9 O         139.7209  141.2384  160.7326 O.3     1  UNL1       -0.3530
     10 C         138.9375  137.7301  163.4396 C.3     1  UNL1        0.1202
     11 C         139.3912  137.7695  164.8687 C.3     1  UNL1        0.2226
     12 O         138.9864  138.9117  165.7529 O.3     1  UNL1       -0.4740
     13 C         142.0937  141.1084  168.1548 C.ar    1  UNL1        0.0686
     14 C         140.6603  141.1157  168.5972 C.ar    1  UNL1        0.0134
     15 C         139.6246  140.3834  167.7965 C.ar    1  UNL1        0.0376
     16 C         140.0221  139.6439  166.5535 C.ar    1  UNL1        0.1387
     17 C         141.4554  139.6366  166.1112 C.ar    1  UNL1        0.0376
     18 C         142.4912  140.3688  166.9118 C.ar    1  UNL1        0.0134
     19 N         144.1651  142.5728  169.7561 N.1     1  UNL1       -0.1908
     20 C         143.1294  141.8406  168.9555 C.1     1  UNL1        0.1004
     21 C         140.2431  143.5774  158.9279 C.3     1  UNL1        0.0913
     22 C         141.1668  144.6738  159.3694 C.3     1  UNL1        0.1087
     23 N         140.7396  145.6260  160.4468 N.3     1  UNL1       -0.1780
     24 H         139.8663  146.0508  160.1350 H       1  UNL1        0.1488
     25 S         140.5038  145.1245  161.8406 S.O2    1  UNL1        0.0603
     26 O         141.9433  144.7138  161.9364 O.2     1  UNL1       -0.1530
     27 O         139.0644  145.5352  161.7449 O.2     1  UNL1       -0.1530
     28 C         140.2680  144.6230  163.2346 C.ar    1  UNL1        0.1219
     29 C         139.0102  144.9946  163.9625 C.ar    1  UNL1        0.0199
     30 C         138.7743  144.4932  165.3563 C.ar    1  UNL1        0.0014
     31 C         139.7962  143.6201  166.0222 C.ar    1  UNL1        0.0001
     32 C         141.0540  143.2485  165.2943 C.ar    1  UNL1        0.0014
     33 C         141.2899  143.7499  163.9005 C.ar    1  UNL1        0.0199
@<TRIPOS>BOND
     1    19    20    3
     2    20    13    1
     3    13    14   ar
     4    14    15   ar
     5    15    16   ar
     6    16    12    1
     7    12    11    1
     8    11    10    1
     9    10     1    1
    10     1     2    1
    11     2     3    1
    12     3     4    1
    13     4     5    1
    14     5    21    1
    15    21    22    1
    16    22    23    1
    17    23    25    1
    18    25    26    2
    19    25    27    2
    20    25    28    1
    21    28    29   ar
    22    29    30   ar
    23    30    31   ar
    24    31    32   ar
    25    32    33   ar
    26     5     6    1
    27     6     7    1
    28     7     8    1
    29     7     9    1
    30    16    17   ar
    31    17    18   ar
    32    18    13   ar
    33     8     1    1
    34     9     3    1
    35    33    28   ar
    36    23    24    1
@<TRIPOS>MOLECULE
*****
 33 36 0 0 0
SMALL
GASTEIGER

@<TRIPOS>ATOM
      1 N         138.5843  140.2850  165.4111 N.3     1  UNL1       -0.2653
      2 C         139.6067  141.1600  166.0736 C.3     1  UNL1        0.1036
      3 C         140.0434  142.4345  165.4143 C.3     1  UNL1        0.1470
      4 C         140.4803  143.7091  164.7549 C.3     1  UNL1        0.1035
      5 N         139.8947  144.1085  163.4329 N.3     1  UNL1       -0.2673
      6 C         138.8723  143.2334  162.7704 C.3     1  UNL1        0.1035
      7 C         138.4355  141.9589  163.4298 C.3     1  UNL1        0.1470
      8 C         137.9987  140.6844  164.0891 C.3     1  UNL1        0.1036
      9 O         139.4579  142.8339  164.0923 O.3     1  UNL1       -0.3530
     10 C         138.1475  139.0104  166.0705 C.3     1  UNL1        0.1202
     11 C         138.7139  137.6982  165.6154 C.3     1  UNL1        0.2226
     12 O         138.4969  137.2363  164.2049 O.3     1  UNL1       -0.4740
     13 C         141.5314  138.2079  161.0272 C.ar    1  UNL1        0.0686
     14 C         140.0715  138.4289  160.7628 C.ar    1  UNL1        0.0134
     15 C         139.0600  138.1050  161.8220 C.ar    1  UNL1        0.0376
     16 C         139.5084  137.5601  163.1456 C.ar    1  UNL1        0.1387
     17 C         140.9682  137.3392  163.4101 C.ar    1  UNL1        0.0376
     18 C         141.9798  137.6630  162.3508 C.ar    1  UNL1        0.0134
     19 N         143.5543  138.8556  158.9087 N.1     1  UNL1       -0.1908
     20 C         142.5429  138.5318  159.9679 C.1     1  UNL1        0.1004
     21 C         140.3315  145.3830  162.7735 C.3     1  UNL1        0.0913
     22 C         140.7644  145.3743  161.3373 C.3     1  UNL1        0.1087
     23 N         142.1605  144.9607  160.9773 N.3     1  UNL1       -0.1780
     24 H         142.7512  145.7838  161.0959 H       1  UNL1        0.1488
     25 S         142.8256  143.8398  161.7196 S.O2    1  UNL1        0.0603
     26 O         143.7143  144.8278  162.4153 O.2     1  UNL1       -0.1530
     27 O         141.9369  142.8518  161.0239 O.2     1  UNL1       -0.1530
     28 C         143.4907  142.7187  162.4619 C.ar    1  UNL1        0.1219
     29 C         142.6801  141.5503  162.9391 C.ar    1  UNL1        0.0199
     30 C         143.3451  140.4293  163.6814 C.ar    1  UNL1        0.0014
     31 C         144.8207  140.4767  163.9464 C.ar    1  UNL1        0.0001
     32 C         145.6313  141.6451  163.4692 C.ar    1  UNL1        0.0014
     33 C         144.9663  142.7661  162.7269 C.ar    1  UNL1        0.0199
@<TRIPOS>BOND
     1    19    20    3
     2    20    13    1
     3    13    14   ar
     4    14    15   ar
     5    15    16   ar
     6    16    12    1
     7    12    11    1
     8    11    10    1
     9    10     1    1
    10     1     2    1
    11     2     3    1
    12     3     4    1
    13     4     5    1
    14     5    21    1
    15    21    22    1
    16    22    23    1
    17    23    25    1
    18    25    26    2
    19    25    27    2
    20    25    28    1
    21    28    29   ar
    22    29    30   ar
    23    30    31   ar
    24    31    32   ar
    25    32    33   ar
    26     5     6    1
    27     6     7    1
    28     7     8    1
    29     7     9    1
    30    16    17   ar
    31    17    18   ar
    32    18    13   ar
    33     8     1    1
    34     9     3    1
    35    33    28   ar
    36    23    24    1
