@<TRIPOS>MOLECULE
*****
 27 28 0 0 0
SMALL
GASTEIGER

@<TRIPOS>ATOM
      1 C         142.4254  142.9299  165.1567 C.ar    1  UNL1        0.1413
      2 C         143.4235  142.5061  166.1931 C.ar    1  UNL1        0.0370
      3 C         142.9674  142.1788  167.5841 C.ar    1  UNL1        0.0031
      4 C         141.5132  142.2753  167.9387 C.ar    1  UNL1        0.0003
      5 C         140.5150  142.6991  166.9024 C.ar    1  UNL1        0.0059
      6 C         140.9711  143.0264  165.5114 C.ar    1  UNL1        0.0686
      7 C         139.9729  143.4502  164.4750 C.2     1  UNL1        0.1763
      8 O         139.5421  144.8845  164.3909 O.2     1  UNL1       -0.2912
      9 C         139.4055  142.4396  163.5227 C.3     1  UNL1        0.0739
     10 C         138.2080  141.6270  163.9171 C.3     1  UNL1        0.0345
     11 C         138.3810  140.2078  164.3710 C.ar    1  UNL1       -0.0217
     12 C         138.1096  139.8388  165.7993 C.ar    1  UNL1       -0.0043
     13 C         138.2826  138.4197  166.2532 C.ar    1  UNL1       -0.0003
     14 C         138.7271  137.3695  165.2788 C.ar    1  UNL1       -0.0000
     15 C         138.9986  137.7385  163.8504 C.ar    1  UNL1       -0.0003
     16 C         138.8255  139.1577  163.3965 C.ar    1  UNL1       -0.0043
     17 O         142.8815  143.2572  163.7658 O.3     1  UNL1       -0.4727
     18 C         144.3452  143.2619  163.4380 C.3     1  UNL1        0.2358
     19 C         145.0083  142.0085  162.9488 C.3     1  UNL1        0.1697
     20 O         146.4647  141.7751  163.2213 O.3     1  UNL1       -0.3793
     21 H         146.7328  140.9246  162.8397 H       1  UNL1        0.2106
     22 C         144.2149  140.9885  162.1871 C.3     1  UNL1        0.1021
     23 N         142.9023  140.5032  162.7272 N.3     1  UNL1       -0.2953
     24 H         142.6886  141.0781  163.5422 H       1  UNL1        0.1233
     25 C         142.7493  139.0733  163.1538 C.3     1  UNL1        0.0686
     26 C         141.9034  139.2274  165.6054 C.3     1  UNL1        0.0015
     27 C         142.8867  138.7036  164.6010 C.3     1  UNL1        0.0171
@<TRIPOS>BOND
     1    26    27    1
     2    27    25    1
     3    25    23    1
     4    23    22    1
     5    22    19    1
     6    19    20    1
     7    19    18    1
     8    18    17    1
     9    17     1    1
    10     1     2   ar
    11     2     3   ar
    12     3     4   ar
    13     4     5   ar
    14     5     6   ar
    15     6     7    1
    16     7     8    2
    17     7     9    1
    18     9    10    1
    19    10    11    1
    20    11    12   ar
    21    12    13   ar
    22    13    14   ar
    23    14    15   ar
    24    15    16   ar
    25     6     1   ar
    26    16    11   ar
    27    23    24    1
    28    20    21    1
@<TRIPOS>MOLECULE
*****
 27 28 0 0 0
SMALL
GASTEIGER

@<TRIPOS>ATOM
      1 C         139.0541  140.2266  165.0538 C.ar    1  UNL1        0.1413
      2 C         138.1231  139.1238  165.4624 C.ar    1  UNL1        0.0370
      3 C         137.9509  138.7868  166.9139 C.ar    1  UNL1        0.0031
      4 C         138.7098  139.5526  167.9568 C.ar    1  UNL1        0.0003
      5 C         139.6408  140.6554  167.5482 C.ar    1  UNL1        0.0059
      6 C         139.8130  140.9924  166.0967 C.ar    1  UNL1        0.0686
      7 C         140.7440  142.0952  165.6881 C.2     1  UNL1        0.1763
      8 O         140.1992  143.4535  165.3593 O.2     1  UNL1       -0.2912
      9 C         142.2200  141.8397  165.6084 C.3     1  UNL1        0.0739
     10 C         143.1058  142.1920  166.7665 C.3     1  UNL1        0.0345
     11 C         142.8108  141.6423  168.1306 C.ar    1  UNL1       -0.0217
     12 C         142.4961  142.5744  169.2629 C.ar    1  UNL1       -0.0043
     13 C         142.2012  142.0248  170.6270 C.ar    1  UNL1       -0.0003
     14 C         142.2210  140.5430  170.8589 C.ar    1  UNL1       -0.0000
     15 C         142.5357  139.6108  169.7266 C.ar    1  UNL1       -0.0003
     16 C         142.8306  140.1604  168.3625 C.ar    1  UNL1       -0.0043
     17 O         139.2263  140.5635  163.6023 O.3     1  UNL1       -0.4727
     18 C         138.0407  140.5507  162.6836 C.3     1  UNL1        0.2358
     19 C         137.9085  139.4768  161.6447 C.3     1  UNL1        0.1697
     20 O         136.6804  139.4113  160.7859 O.3     1  UNL1       -0.3793
     21 H         136.7549  138.6642  160.1717 H       1  UNL1        0.2106
     22 C         139.0044  138.4686  161.4646 C.3     1  UNL1        0.1021
     23 N         139.3597  137.5386  162.5866 N.3     1  UNL1       -0.2953
     24 H         138.8357  137.8501  163.4044 H       1  UNL1        0.1233
     25 C         140.7893  137.3947  163.0173 C.3     1  UNL1        0.0686
     26 C         142.0658  138.1057  165.1656 C.3     1  UNL1        0.0015
     27 C         141.1183  137.1778  164.4646 C.3     1  UNL1        0.0171
@<TRIPOS>BOND
     1    26    27    1
     2    27    25    1
     3    25    23    1
     4    23    22    1
     5    22    19    1
     6    19    20    1
     7    19    18    1
     8    18    17    1
     9    17     1    1
    10     1     2   ar
    11     2     3   ar
    12     3     4   ar
    13     4     5   ar
    14     5     6   ar
    15     6     7    1
    16     7     8    2
    17     7     9    1
    18     9    10    1
    19    10    11    1
    20    11    12   ar
    21    12    13   ar
    22    13    14   ar
    23    14    15   ar
    24    15    16   ar
    25     6     1   ar
    26    16    11   ar
    27    23    24    1
    28    20    21    1
@<TRIPOS>MOLECULE
*****
 27 28 0 0 0
SMALL
GASTEIGER

@<TRIPOS>ATOM
      1 C         141.6055  143.8396  161.9064 C.ar    1  UNL1        0.1413
      2 C         143.0543  143.5256  161.6775 C.ar    1  UNL1        0.0370
      3 C         144.1032  144.1435  162.5539 C.ar    1  UNL1        0.0031
      4 C         143.7033  145.0753  163.6592 C.ar    1  UNL1        0.0003
      5 C         142.2545  145.3892  163.8881 C.ar    1  UNL1        0.0059
      6 C         141.2056  144.7714  163.0117 C.ar    1  UNL1        0.0686
      7 C         139.7568  145.0853  163.2407 C.2     1  UNL1        0.1763
      8 O         138.9441  145.7151  162.1485 O.2     1  UNL1       -0.2912
      9 C         139.1206  144.7695  164.5619 C.3     1  UNL1        0.0739
     10 C         139.0679  143.3519  165.0491 C.3     1  UNL1        0.0345
     11 C         140.2294  142.7739  165.8020 C.ar    1  UNL1       -0.0217
     12 C         141.2876  142.0019  165.0710 C.ar    1  UNL1       -0.0043
     13 C         142.4491  141.4238  165.8239 C.ar    1  UNL1       -0.0003
     14 C         142.5525  141.6178  167.3077 C.ar    1  UNL1       -0.0000
     15 C         141.4943  142.3898  168.0387 C.ar    1  UNL1       -0.0003
     16 C         140.3328  142.9679  167.2858 C.ar    1  UNL1       -0.0043
     17 O         140.5566  143.2217  161.0300 O.3     1  UNL1       -0.4727
     18 C         139.8762  141.9540  161.4544 C.3     1  UNL1        0.2358
     19 C         138.4041  141.9530  161.7419 C.3     1  UNL1        0.1697
     20 O         137.5720  143.1528  161.3985 O.3     1  UNL1       -0.3793
     21 H         136.6491  142.9883  161.6478 H       1  UNL1        0.2106
     22 C         137.7640  140.7520  162.3728 C.3     1  UNL1        0.1021
     23 N         138.5056  139.9668  163.4137 N.3     1  UNL1       -0.2953
     24 H         138.4975  138.9933  163.1095 H       1  UNL1        0.1233
     25 C         138.0363  139.9792  164.8383 C.3     1  UNL1        0.0686
     26 C         137.7609  138.5176  166.9686 C.3     1  UNL1        0.0015
     27 C         138.6011  138.9983  165.8226 C.3     1  UNL1        0.0171
@<TRIPOS>BOND
     1    26    27    1
     2    27    25    1
     3    25    23    1
     4    23    22    1
     5    22    19    1
     6    19    20    1
     7    19    18    1
     8    18    17    1
     9    17     1    1
    10     1     2   ar
    11     2     3   ar
    12     3     4   ar
    13     4     5   ar
    14     5     6   ar
    15     6     7    1
    16     7     8    2
    17     7     9    1
    18     9    10    1
    19    10    11    1
    20    11    12   ar
    21    12    13   ar
    22    13    14   ar
    23    14    15   ar
    24    15    16   ar
    25     6     1   ar
    26    16    11   ar
    27    23    24    1
    28    20    21    1
@<TRIPOS>MOLECULE
*****
 27 28 0 0 0
SMALL
GASTEIGER

@<TRIPOS>ATOM
      1 C         138.1664  139.9479  163.1181 C.ar    1  UNL1        0.1413
      2 C         137.8533  140.9017  162.0036 C.ar    1  UNL1        0.0370
      3 C         137.6911  142.3648  162.2919 C.ar    1  UNL1        0.0031
      4 C         137.8420  142.8741  163.6946 C.ar    1  UNL1        0.0003
      5 C         138.1551  141.9202  164.8091 C.ar    1  UNL1        0.0059
      6 C         138.3173  140.4572  164.5208 C.ar    1  UNL1        0.0686
      7 C         138.6304  139.5033  165.6354 C.2     1  UNL1        0.1763
      8 O         137.5169  138.8724  166.4177 O.2     1  UNL1       -0.2912
      9 C         140.0571  139.1805  165.9677 C.3     1  UNL1        0.0739
     10 C         140.9620  140.2488  166.5059 C.3     1  UNL1        0.0345
     11 C         140.5777  141.0038  167.7438 C.ar    1  UNL1       -0.0217
     12 C         140.8255  142.4807  167.8288 C.ar    1  UNL1       -0.0043
     13 C         140.4412  143.2357  169.0666 C.ar    1  UNL1       -0.0003
     14 C         139.8090  142.5138  170.2195 C.ar    1  UNL1       -0.0000
     15 C         139.5611  141.0369  170.1345 C.ar    1  UNL1       -0.0003
     16 C         139.9455  140.2819  168.8967 C.ar    1  UNL1       -0.0043
     17 O         138.3286  138.4848  162.8298 O.3     1  UNL1       -0.4727
     18 C         139.3607  138.0247  161.8433 C.3     1  UNL1        0.2358
     19 C         140.7986  137.9183  162.2569 C.3     1  UNL1        0.1697
     20 O         141.2939  136.6755  162.9353 O.3     1  UNL1       -0.3793
     21 H         142.2386  136.7701  163.1339 H       1  UNL1        0.2106
     22 C         141.7413  139.0547  161.9921 C.3     1  UNL1        0.1021
     23 N         141.8955  140.1522  163.0029 N.3     1  UNL1       -0.2953
     24 H         141.3021  139.9079  163.7957 H       1  UNL1        0.1233
     25 C         141.5610  141.5664  162.6313 C.3     1  UNL1        0.0686
     26 C         142.7231  142.8794  164.5485 C.3     1  UNL1        0.0015
     27 C         141.5198  142.6299  163.6884 C.3     1  UNL1        0.0171
@<TRIPOS>BOND
     1    26    27    1
     2    27    25    1
     3    25    23    1
     4    23    22    1
     5    22    19    1
     6    19    20    1
     7    19    18    1
     8    18    17    1
     9    17     1    1
    10     1     2   ar
    11     2     3   ar
    12     3     4   ar
    13     4     5   ar
    14     5     6   ar
    15     6     7    1
    16     7     8    2
    17     7     9    1
    18     9    10    1
    19    10    11    1
    20    11    12   ar
    21    12    13   ar
    22    13    14   ar
    23    14    15   ar
    24    15    16   ar
    25     6     1   ar
    26    16    11   ar
    27    23    24    1
    28    20    21    1
@<TRIPOS>MOLECULE
*****
 27 28 0 0 0
SMALL
GASTEIGER

@<TRIPOS>ATOM
      1 C         141.1642  138.9284  165.4786 C.ar    1  UNL1        0.1413
      2 C         140.3768  137.8561  164.7858 C.ar    1  UNL1        0.0370
      3 C         138.9415  137.6230  165.1539 C.ar    1  UNL1        0.0031
      4 C         138.2936  138.4623  166.2148 C.ar    1  UNL1        0.0003
      5 C         139.0810  139.5346  166.9077 C.ar    1  UNL1        0.0059
      6 C         140.5163  139.7677  166.5396 C.ar    1  UNL1        0.0686
      7 C         141.3037  140.8400  167.2325 C.2     1  UNL1        0.1763
      8 O         141.9725  140.5509  168.5436 O.2     1  UNL1       -0.2912
      9 C         141.4222  142.2016  166.6143 C.3     1  UNL1        0.0739
     10 C         140.2384  143.1225  166.5959 C.3     1  UNL1        0.0345
     11 C         139.5067  143.3778  165.3116 C.ar    1  UNL1       -0.0217
     12 C         138.4621  142.4108  164.8386 C.ar    1  UNL1       -0.0043
     13 C         137.7303  142.6661  163.5544 C.ar    1  UNL1       -0.0003
     14 C         138.0432  143.8884  162.7431 C.ar    1  UNL1       -0.0000
     15 C         139.0878  144.8554  163.2161 C.ar    1  UNL1       -0.0003
     16 C         139.8195  144.6001  164.5004 C.ar    1  UNL1       -0.0043
     17 O         142.5996  139.1614  165.1105 O.3     1  UNL1       -0.4727
     18 C         142.9408  140.0147  163.9251 C.3     1  UNL1        0.2358
     19 C         144.3109  139.9429  163.3187 C.3     1  UNL1        0.1697
     20 O         144.6673  138.8097  162.4028 O.3     1  UNL1       -0.3793
     21 H         145.5832  138.9137  162.1010 H       1  UNL1        0.2106
     22 C         145.3247  141.0042  163.6283 C.3     1  UNL1        0.1021
     23 N         145.6337  142.0650  162.6138 N.3     1  UNL1       -0.2953
     24 H         146.4955  142.5193  162.9159 H       1  UNL1        0.1233
     25 C         144.6407  143.1562  162.3435 C.3     1  UNL1        0.0686
     26 C         143.7269  144.9324  164.0049 C.3     1  UNL1        0.0015
     27 C         143.6610  143.5588  163.4056 C.3     1  UNL1        0.0171
@<TRIPOS>BOND
     1    26    27    1
     2    27    25    1
     3    25    23    1
     4    23    22    1
     5    22    19    1
     6    19    20    1
     7    19    18    1
     8    18    17    1
     9    17     1    1
    10     1     2   ar
    11     2     3   ar
    12     3     4   ar
    13     4     5   ar
    14     5     6   ar
    15     6     7    1
    16     7     8    2
    17     7     9    1
    18     9    10    1
    19    10    11    1
    20    11    12   ar
    21    12    13   ar
    22    13    14   ar
    23    14    15   ar
    24    15    16   ar
    25     6     1   ar
    26    16    11   ar
    27    23    24    1
    28    20    21    1
@<TRIPOS>MOLECULE
*****
 27 28 0 0 0
SMALL
GASTEIGER

@<TRIPOS>ATOM
      1 C         139.5036  141.3801  165.7356 C.ar    1  UNL1        0.1413
      2 C         140.2694  142.5505  166.2775 C.ar    1  UNL1        0.0370
      3 C         140.8585  142.4883  167.6555 C.ar    1  UNL1        0.0031
      4 C         140.6819  141.2557  168.4917 C.ar    1  UNL1        0.0003
      5 C         139.9161  140.0852  167.9499 C.ar    1  UNL1        0.0059
      6 C         139.3270  140.1474  166.5719 C.ar    1  UNL1        0.0686
      7 C         138.5611  138.9769  166.0301 C.2     1  UNL1        0.1763
      8 O         137.3201  138.5047  166.7278 O.2     1  UNL1       -0.2912
      9 C         139.0364  138.2786  164.7905 C.3     1  UNL1        0.0739
     10 C         140.2694  137.4257  164.8362 C.3     1  UNL1        0.0345
     11 C         141.6104  138.0294  164.5407 C.ar    1  UNL1       -0.0217
     12 C         142.4451  138.5848  165.6564 C.ar    1  UNL1       -0.0043
     13 C         143.7861  139.1885  165.3610 C.ar    1  UNL1       -0.0003
     14 C         144.2923  139.2369  163.9498 C.ar    1  UNL1       -0.0000
     15 C         143.4576  138.6816  162.8341 C.ar    1  UNL1       -0.0003
     16 C         142.1166  138.0778  163.1295 C.ar    1  UNL1       -0.0043
     17 O         138.9144  141.4423  164.3576 O.3     1  UNL1       -0.4727
     18 C         137.7452  142.3405  164.0817 C.3     1  UNL1        0.2358
     19 C         137.8275  143.3643  162.9885 C.3     1  UNL1        0.1697
     20 O         137.5848  142.9618  161.5641 O.3     1  UNL1       -0.3793
     21 H         137.6758  143.7375  160.9889 H       1  UNL1        0.2106
     22 C         138.1526  144.7908  163.3198 C.3     1  UNL1        0.1021
     23 N         139.4734  145.1338  163.9424 N.3     1  UNL1       -0.2953
     24 H         139.5193  146.1515  163.9937 H       1  UNL1        0.1233
     25 C         140.7479  144.6749  163.2982 C.3     1  UNL1        0.0686
     26 C         143.1564  144.1532  164.1211 C.3     1  UNL1        0.0015
     27 C         142.0691  145.1449  163.8308 C.3     1  UNL1        0.0171
@<TRIPOS>BOND
     1    26    27    1
     2    27    25    1
     3    25    23    1
     4    23    22    1
     5    22    19    1
     6    19    20    1
     7    19    18    1
     8    18    17    1
     9    17     1    1
    10     1     2   ar
    11     2     3   ar
    12     3     4   ar
    13     4     5   ar
    14     5     6   ar
    15     6     7    1
    16     7     8    2
    17     7     9    1
    18     9    10    1
    19    10    11    1
    20    11    12   ar
    21    12    13   ar
    22    13    14   ar
    23    14    15   ar
    24    15    16   ar
    25     6     1   ar
    26    16    11   ar
    27    23    24    1
    28    20    21    1
@<TRIPOS>MOLECULE
*****
 27 28 0 0 0
SMALL
GASTEIGER

@<TRIPOS>ATOM
      1 C         139.8004  141.2064  166.3949 C.ar    1  UNL1        0.1413
      2 C         140.0637  142.6565  166.1163 C.ar    1  UNL1        0.0370
      3 C         139.2366  143.3873  165.1005 C.ar    1  UNL1        0.0031
      4 C         138.1463  142.6679  164.3633 C.ar    1  UNL1        0.0003
      5 C         137.8830  141.2178  164.6419 C.ar    1  UNL1        0.0059
      6 C         138.7101  140.4870  165.6577 C.ar    1  UNL1        0.0686
      7 C         138.4467  139.0367  165.9363 C.2     1  UNL1        0.1763
      8 O         137.6239  138.6389  167.1256 O.2     1  UNL1       -0.2912
      9 C         139.0062  137.9844  165.0255 C.3     1  UNL1        0.0739
     10 C         139.9366  138.3717  163.9145 C.3     1  UNL1        0.0345
     11 C         141.3211  138.8551  164.2298 C.ar    1  UNL1       -0.0217
     12 C         142.1794  138.0938  165.1962 C.ar    1  UNL1       -0.0043
     13 C         143.5639  138.5772  165.5115 C.ar    1  UNL1       -0.0003
     14 C         144.0902  139.8218  164.8604 C.ar    1  UNL1       -0.0000
     15 C         143.2320  140.5831  163.8939 C.ar    1  UNL1       -0.0003
     16 C         141.8474  140.0997  163.5786 C.ar    1  UNL1       -0.0043
     17 O         140.6275  140.4756  167.4107 O.3     1  UNL1       -0.4727
     18 C         142.0128  140.9521  167.7331 C.3     1  UNL1        0.2358
     19 C         142.7175  140.4385  168.9536 C.3     1  UNL1        0.1697
     20 O         142.8459  138.9612  169.1796 O.3     1  UNL1       -0.3793
     21 H         143.3245  138.8012  170.0080 H       1  UNL1        0.2106
     22 C         143.2939  141.4023  169.9482 C.3     1  UNL1        0.1021
     23 N         142.4217  141.9840  171.0210 N.3     1  UNL1       -0.2953
     24 H         142.8219  141.6962  171.9140 H       1  UNL1        0.1233
     25 C         140.9624  141.6405  171.0696 C.3     1  UNL1        0.0686
     26 C         140.4033  143.8220  169.7739 C.3     1  UNL1        0.0015
     27 C         139.9584  142.5376  170.4083 C.3     1  UNL1        0.0171
@<TRIPOS>BOND
     1    26    27    1
     2    27    25    1
     3    25    23    1
     4    23    22    1
     5    22    19    1
     6    19    20    1
     7    19    18    1
     8    18    17    1
     9    17     1    1
    10     1     2   ar
    11     2     3   ar
    12     3     4   ar
    13     4     5   ar
    14     5     6   ar
    15     6     7    1
    16     7     8    2
    17     7     9    1
    18     9    10    1
    19    10    11    1
    20    11    12   ar
    21    12    13   ar
    22    13    14   ar
    23    14    15   ar
    24    15    16   ar
    25     6     1   ar
    26    16    11   ar
    27    23    24    1
    28    20    21    1
@<TRIPOS>MOLECULE
*****
 27 28 0 0 0
SMALL
GASTEIGER

@<TRIPOS>ATOM
      1 C         140.3768  139.3691  165.3625 C.ar    1  UNL1        0.1413
      2 C         139.2691  138.4205  165.0118 C.ar    1  UNL1        0.0370
      3 C         138.1566  138.1731  165.9870 C.ar    1  UNL1        0.0031
      4 C         138.1518  138.8743  167.3130 C.ar    1  UNL1        0.0003
      5 C         139.2595  139.8230  167.6637 C.ar    1  UNL1        0.0059
      6 C         140.3720  140.0703  166.6884 C.ar    1  UNL1        0.0686
      7 C         141.4797  141.0191  167.0392 C.2     1  UNL1        0.1763
      8 O         142.6449  140.5428  167.8549 O.2     1  UNL1       -0.2912
      9 C         141.4222  142.4440  166.5741 C.3     1  UNL1        0.0739
     10 C         140.1149  143.1794  166.5702 C.3     1  UNL1        0.0345
     11 C         139.3711  143.3801  165.2831 C.ar    1  UNL1       -0.0217
     12 C         138.3746  142.3567  164.8253 C.ar    1  UNL1       -0.0043
     13 C         137.6309  142.5574  163.5382 C.ar    1  UNL1       -0.0003
     14 C         137.8836  143.7815  162.7090 C.ar    1  UNL1       -0.0000
     15 C         138.8802  144.8050  163.1668 C.ar    1  UNL1       -0.0003
     16 C         139.6239  144.6043  164.4538 C.ar    1  UNL1       -0.0043
     17 O         141.4893  139.6165  164.3872 O.3     1  UNL1       -0.4727
     18 C         142.4667  138.5234  164.0714 C.3     1  UNL1        0.2358
     19 C         142.5047  137.9254  162.6962 C.3     1  UNL1        0.1697
     20 O         141.4234  136.9825  162.2583 O.3     1  UNL1       -0.3793
     21 H         141.5977  136.6902  161.3500 H       1  UNL1        0.2106
     22 C         143.6239  138.2704  161.7590 C.3     1  UNL1        0.1021
     23 N         144.6301  139.3140  162.1444 N.3     1  UNL1       -0.2953
     24 H         144.7014  139.2928  163.1617 H       1  UNL1        0.1233
     25 C         144.4119  140.7461  161.7553 C.3     1  UNL1        0.0686
     26 C         145.7600  141.5521  163.8249 C.3     1  UNL1        0.0015
     27 C         145.1124  141.8415  162.5032 C.3     1  UNL1        0.0171
@<TRIPOS>BOND
     1    26    27    1
     2    27    25    1
     3    25    23    1
     4    23    22    1
     5    22    19    1
     6    19    20    1
     7    19    18    1
     8    18    17    1
     9    17     1    1
    10     1     2   ar
    11     2     3   ar
    12     3     4   ar
    13     4     5   ar
    14     5     6   ar
    15     6     7    1
    16     7     8    2
    17     7     9    1
    18     9    10    1
    19    10    11    1
    20    11    12   ar
    21    12    13   ar
    22    13    14   ar
    23    14    15   ar
    24    15    16   ar
    25     6     1   ar
    26    16    11   ar
    27    23    24    1
    28    20    21    1
@<TRIPOS>MOLECULE
*****
 27 28 0 0 0
SMALL
GASTEIGER

@<TRIPOS>ATOM
      1 C         140.1585  141.3605  165.7713 C.ar    1  UNL1        0.1413
      2 C         141.3856  141.9674  165.1584 C.ar    1  UNL1        0.0370
      3 C         142.7399  141.4098  165.4822 C.ar    1  UNL1        0.0031
      4 C         142.8671  140.2452  166.4189 C.ar    1  UNL1        0.0003
      5 C         141.6400  139.6383  167.0319 C.ar    1  UNL1        0.0059
      6 C         140.2857  140.1959  166.7081 C.ar    1  UNL1        0.0686
      7 C         139.0585  139.5889  167.3211 C.2     1  UNL1        0.1763
      8 O         138.8009  139.7406  168.7909 O.2     1  UNL1       -0.2912
      9 C         138.0890  138.8301  166.4641 C.3     1  UNL1        0.0739
     10 C         138.5337  137.5909  165.7455 C.3     1  UNL1        0.0345
     11 C         139.3104  137.7030  164.4672 C.ar    1  UNL1       -0.0217
     12 C         138.6361  138.1936  163.2204 C.ar    1  UNL1       -0.0043
     13 C         139.4128  138.3058  161.9421 C.ar    1  UNL1       -0.0003
     14 C         140.8639  137.9274  161.9106 C.ar    1  UNL1       -0.0000
     15 C         141.5384  137.4367  163.1574 C.ar    1  UNL1       -0.0003
     16 C         140.7616  137.3246  164.4357 C.ar    1  UNL1       -0.0043
     17 O         138.8042  141.9181  165.4475 O.3     1  UNL1       -0.4727
     18 C         138.1964  141.6758  164.0978 C.3     1  UNL1        0.2358
     19 C         137.9569  142.8263  163.1656 C.3     1  UNL1        0.1697
     20 O         137.5907  142.5681  161.7341 O.3     1  UNL1       -0.3793
     21 H         137.4720  143.4133  161.2732 H       1  UNL1        0.2106
     22 C         138.0836  144.2351  163.6650 C.3     1  UNL1        0.1021
     23 N         139.3991  144.7294  164.1895 N.3     1  UNL1       -0.2953
     24 H         139.1993  145.5543  164.7553 H       1  UNL1        0.1233
     25 C         140.4906  145.1132  163.2349 C.3     1  UNL1        0.0686
     26 C         143.0510  144.6847  163.1303 C.3     1  UNL1        0.0015
     27 C         141.8747  145.3819  163.7470 C.3     1  UNL1        0.0171
@<TRIPOS>BOND
     1    26    27    1
     2    27    25    1
     3    25    23    1
     4    23    22    1
     5    22    19    1
     6    19    20    1
     7    19    18    1
     8    18    17    1
     9    17     1    1
    10     1     2   ar
    11     2     3   ar
    12     3     4   ar
    13     4     5   ar
    14     5     6   ar
    15     6     7    1
    16     7     8    2
    17     7     9    1
    18     9    10    1
    19    10    11    1
    20    11    12   ar
    21    12    13   ar
    22    13    14   ar
    23    14    15   ar
    24    15    16   ar
    25     6     1   ar
    26    16    11   ar
    27    23    24    1
    28    20    21    1
