@<TRIPOS>MOLECULE
*****
 35 38 0 0 0
SMALL
GASTEIGER

@<TRIPOS>ATOM
      1 C         142.2048  140.1165  164.3506 C.2     1  UNL1        0.1397
      2 C         142.7025  140.3991  162.9642 C.2     1  UNL1        0.1355
      3 N         142.2623  141.6414  162.2480 N.pl3   1  UNL1       -0.1998
      4 C         141.3245  142.6011  162.9183 C.2     1  UNL1        0.3442
      5 N         140.8268  142.3185  164.3048 N.2     1  UNL1       -0.0580
      6 C         141.2670  141.0762  165.0209 C.3     1  UNL1        0.2692
      7 H         142.5890  141.8268  161.3379 H       1  UNL1        0.2983
      8 C         140.7692  140.7936  166.4075 C.ar    1  UNL1        0.0371
      9 C         139.5103  140.0026  166.6057 C.ar    1  UNL1        0.0030
     10 C         139.0125  139.7201  167.9922 C.ar    1  UNL1        0.0295
     11 C         139.7738  140.2285  169.1806 C.ar    1  UNL1        0.1406
     12 F         139.2760  139.9459  170.5670 F       1  UNL1       -0.2042
     13 C         141.0327  141.0195  168.9823 C.ar    1  UNL1        0.0362
     14 C         141.5305  141.3021  167.5958 C.ar    1  UNL1        0.0372
     15 BR        142.7894  142.0931  167.3975 Br      1  UNL1       -0.0491
     16 C         140.8843  143.8434  162.2021 C.ar    1  UNL1        0.1931
     17 N         141.1135  144.1535  160.7525 N.ar    1  UNL1       -0.2297
     18 C         140.5085  145.4955  160.4642 C.ar    1  UNL1        0.1067
     19 C         139.9055  146.0148  161.7357 C.ar    1  UNL1        0.0577
     20 S         140.1378  144.9938  162.8097 S.2     1  UNL1       -0.0586
     21 C         142.6450  138.8742  165.0668 C.2     1  UNL1        0.3447
     22 O         143.9643  138.8471  165.7799 O.2     1  UNL1       -0.2450
     23 O         141.7658  137.6589  165.0699 O.3     1  UNL1       -0.4455
     24 C         139.5165  137.6476  163.7697 C.3     1  UNL1        0.0513
     25 C         140.9743  137.3026  163.8466 C.3     1  UNL1        0.2089
     26 C         143.6404  139.4393  162.2938 C.3     1  UNL1        0.1405
     27 N         143.5194  139.1770  160.8219 N.3     1  UNL1       -0.2617
     28 C         142.7669  137.9748  160.3336 C.3     1  UNL1        0.1050
     29 C         142.6460  137.7125  158.8616 C.3     1  UNL1        0.1595
     30 O         143.2775  138.6525  157.8780 O.3     1  UNL1       -0.3508
     31 C         144.0301  139.8547  158.3662 C.3     1  UNL1        0.1603
     32 C         144.1510  140.1170  159.8381 C.3     1  UNL1        0.1050
     33 C         144.6616  140.7946  157.3826 C.3     1  UNL1        0.1680
     34 O         145.7187  140.2968  156.4419 O.3     1  UNL1       -0.3795
     35 H         146.5053  140.0381  156.9472 H       1  UNL1        0.2105
@<TRIPOS>BOND
     1    24    25    1
     2    25    23    1
     3    23    21    1
     4    21    22    2
     5    21     1    1
     6     1     2    2
     7     2    26    1
     8    26    27    1
     9    27    28    1
    10    28    29    1
    11    29    30    1
    12    30    31    1
    13    31    33    1
    14    33    34    1
    15    31    32    1
    16     2     3    1
    17     3     4    1
    18     4    16    1
    19    16    17   ar
    20    17    18   ar
    21    18    19   ar
    22    19    20   ar
    23     4     5    2
    24     5     6    1
    25     6     8    1
    26     8     9   ar
    27     9    10   ar
    28    10    11   ar
    29    11    12    1
    30    11    13   ar
    31    13    14   ar
    32    14    15    1
    33     6     1    1
    34    14     8   ar
    35    32    27    1
    36    20    16   ar
    37    34    35    1
    38     3     7    1
@<TRIPOS>MOLECULE
*****
 35 38 0 0 0
SMALL
GASTEIGER

@<TRIPOS>ATOM
      1 C         139.1967  141.6124  160.7948 C.2     1  UNL1        0.1397
      2 C         139.3518  141.0580  159.4097 C.2     1  UNL1        0.1355
      3 N         139.5473  141.9864  158.2478 N.pl3   1  UNL1       -0.1998
      4 C         139.5875  143.4691  158.4710 C.2     1  UNL1        0.3442
      5 N         139.4324  144.0235  159.8562 N.2     1  UNL1       -0.0580
      6 C         139.2370  143.0951  161.0180 C.3     1  UNL1        0.2692
      7 H         139.6491  141.6226  157.3387 H       1  UNL1        0.2983
      8 C         139.0818  143.6495  162.4032 C.ar    1  UNL1        0.0371
      9 C         137.7145  143.8041  163.0003 C.ar    1  UNL1        0.0030
     10 C         137.5593  144.3585  164.3854 C.ar    1  UNL1        0.0295
     11 C         138.7715  144.7583  165.1735 C.ar    1  UNL1        0.1406
     12 F         138.6163  145.3127  166.5585 F       1  UNL1       -0.2042
     13 C         140.1388  144.6037  164.5763 C.ar    1  UNL1        0.0362
     14 C         140.2939  144.0493  163.1911 C.ar    1  UNL1        0.0372
     15 BR        141.6612  143.8947  162.5940 Br      1  UNL1       -0.0491
     16 C         139.7830  144.3975  157.3092 C.ar    1  UNL1        0.1931
     17 N         140.3482  145.7854  157.3749 N.ar    1  UNL1       -0.2297
     18 C         140.3621  146.3466  155.9839 C.ar    1  UNL1        0.1067
     19 C         139.8054  145.3056  155.0585 C.ar    1  UNL1        0.0577
     20 S         139.4475  144.1010  155.8776 S.2     1  UNL1       -0.0586
     21 C         139.0012  140.6840  161.9566 C.2     1  UNL1        0.3447
     22 O         137.6535  140.0780  162.2140 O.2     1  UNL1       -0.2450
     23 O         140.1535  140.3617  162.8612 O.3     1  UNL1       -0.4455
     24 C         139.2540  141.0335  165.2042 C.3     1  UNL1        0.0513
     25 C         139.9051  140.0273  164.3022 C.3     1  UNL1        0.2089
     26 C         139.3115  139.5753  159.1864 C.3     1  UNL1        0.1405
     27 N         140.5872  138.8119  158.9869 N.3     1  UNL1       -0.2617
     28 C         140.8911  138.1941  157.6543 C.3     1  UNL1        0.1050
     29 C         142.1669  137.4308  157.4549 C.3     1  UNL1        0.1595
     30 O         143.1387  137.2852  158.5881 O.3     1  UNL1       -0.3508
     31 C         142.8348  137.9029  159.9208 C.3     1  UNL1        0.1603
     32 C         141.5591  138.6663  160.1202 C.3     1  UNL1        0.1050
     33 C         143.8067  137.7573  161.0541 C.3     1  UNL1        0.1680
     34 O         144.5772  138.9494  161.5392 O.3     1  UNL1       -0.3795
     35 H         145.1832  139.2478  160.8430 H       1  UNL1        0.2105
@<TRIPOS>BOND
     1    24    25    1
     2    25    23    1
     3    23    21    1
     4    21    22    2
     5    21     1    1
     6     1     2    2
     7     2    26    1
     8    26    27    1
     9    27    28    1
    10    28    29    1
    11    29    30    1
    12    30    31    1
    13    31    33    1
    14    33    34    1
    15    31    32    1
    16     2     3    1
    17     3     4    1
    18     4    16    1
    19    16    17   ar
    20    17    18   ar
    21    18    19   ar
    22    19    20   ar
    23     4     5    2
    24     5     6    1
    25     6     8    1
    26     8     9   ar
    27     9    10   ar
    28    10    11   ar
    29    11    12    1
    30    11    13   ar
    31    13    14   ar
    32    14    15    1
    33     6     1    1
    34    14     8   ar
    35    32    27    1
    36    20    16   ar
    37    34    35    1
    38     3     7    1
@<TRIPOS>MOLECULE
*****
 35 38 0 0 0
SMALL
GASTEIGER

@<TRIPOS>ATOM
      1 C         141.5529  139.9535  164.2766 C.2     1  UNL1        0.1397
      2 C         141.7825  140.1417  162.8063 C.2     1  UNL1        0.1355
      3 N         141.4327  141.4461  162.1535 N.pl3   1  UNL1       -0.1998
      4 C         140.8533  142.5623  162.9709 C.2     1  UNL1        0.3442
      5 N         140.6237  142.3742  164.4412 N.2     1  UNL1       -0.0580
      6 C         140.9735  141.0698  165.0941 C.3     1  UNL1        0.2692
      7 H         141.5833  141.5696  161.1884 H       1  UNL1        0.2983
      8 C         140.7439  140.8816  166.5645 C.ar    1  UNL1        0.0371
      9 C         139.4966  140.2031  167.0480 C.ar    1  UNL1        0.0030
     10 C         139.2670  140.0149  168.5183 C.ar    1  UNL1        0.0295
     11 C         140.2847  140.5053  169.5051 C.ar    1  UNL1        0.1406
     12 F         140.0551  140.3171  170.9754 F       1  UNL1       -0.2042
     13 C         141.5321  141.1838  169.0216 C.ar    1  UNL1        0.0362
     14 C         141.7617  141.3720  167.5512 C.ar    1  UNL1        0.0372
     15 BR        143.0090  142.0505  167.0677 Br      1  UNL1       -0.0491
     16 C         140.5034  143.8667  162.3181 C.ar    1  UNL1        0.1931
     17 N         140.8427  144.2686  160.9134 N.ar    1  UNL1       -0.2297
     18 C         140.3019  145.6485  160.6825 C.ar    1  UNL1        0.1067
     19 C         139.6283  146.0995  161.9446 C.ar    1  UNL1        0.0577
     20 S         139.7529  144.9983  162.9554 S.2     1  UNL1       -0.0586
     21 C         141.9028  138.6492  164.9294 C.2     1  UNL1        0.3447
     22 O         143.1762  138.5196  165.7114 O.2     1  UNL1       -0.2450
     23 O         140.9792  137.4743  164.8002 O.3     1  UNL1       -0.4455
     24 C         138.9963  137.6181  163.1276 C.3     1  UNL1        0.0513
     25 C         139.5199  137.6935  164.5313 C.3     1  UNL1        0.2089
     26 C         142.3619  139.0255  161.9887 C.3     1  UNL1        0.1405
     27 N         142.3543  139.1105  160.4912 N.3     1  UNL1       -0.2617
     28 C         143.5532  139.6433  159.7641 C.3     1  UNL1        0.1050
     29 C         143.5456  139.7283  158.2665 C.3     1  UNL1        0.1595
     30 O         142.3390  139.2805  157.4960 O.3     1  UNL1       -0.3508
     31 C         141.1401  138.7477  158.2231 C.3     1  UNL1        0.1603
     32 C         141.1477  138.6627  159.7206 C.3     1  UNL1        0.1050
     33 C         139.9335  138.2999  157.4527 C.3     1  UNL1        0.1680
     34 O         138.7006  139.1540  157.4268 O.3     1  UNL1       -0.3795
     35 H         138.3180  139.1965  158.3171 H       1  UNL1        0.2105
@<TRIPOS>BOND
     1    24    25    1
     2    25    23    1
     3    23    21    1
     4    21    22    2
     5    21     1    1
     6     1     2    2
     7     2    26    1
     8    26    27    1
     9    27    28    1
    10    28    29    1
    11    29    30    1
    12    30    31    1
    13    31    33    1
    14    33    34    1
    15    31    32    1
    16     2     3    1
    17     3     4    1
    18     4    16    1
    19    16    17   ar
    20    17    18   ar
    21    18    19   ar
    22    19    20   ar
    23     4     5    2
    24     5     6    1
    25     6     8    1
    26     8     9   ar
    27     9    10   ar
    28    10    11   ar
    29    11    12    1
    30    11    13   ar
    31    13    14   ar
    32    14    15    1
    33     6     1    1
    34    14     8   ar
    35    32    27    1
    36    20    16   ar
    37    34    35    1
    38     3     7    1
@<TRIPOS>MOLECULE
*****
 35 38 0 0 0
SMALL
GASTEIGER

@<TRIPOS>ATOM
      1 C         141.4952  139.7651  164.0949 C.2     1  UNL1        0.1397
      2 C         141.7824  140.0084  162.6429 C.2     1  UNL1        0.1355
      3 N         141.4611  141.3379  162.0274 N.pl3   1  UNL1       -0.1998
      4 C         140.8525  142.4242  162.8638 C.2     1  UNL1        0.3442
      5 N         140.5654  142.1810  164.3157 N.2     1  UNL1       -0.0580
      6 C         140.8867  140.8514  164.9313 C.3     1  UNL1        0.2692
      7 H         141.6496  141.4976  161.0744 H       1  UNL1        0.2983
      8 C         140.5995  140.6081  166.3834 C.ar    1  UNL1        0.0371
      9 C         141.6233  140.9642  167.4203 C.ar    1  UNL1        0.0030
     10 C         141.3361  140.7209  168.8723 C.ar    1  UNL1        0.0295
     11 C         140.0251  140.1217  169.2874 C.ar    1  UNL1        0.1406
     12 F         139.7380  139.8784  170.7394 F       1  UNL1       -0.2042
     13 C         139.0014  139.7656  168.2506 C.ar    1  UNL1        0.0362
     14 C         139.2886  140.0089  166.7985 C.ar    1  UNL1        0.0372
     15 BR        138.2648  139.6528  165.7616 Br      1  UNL1       -0.0491
     16 C         140.5312  143.7538  162.2482 C.ar    1  UNL1        0.1931
     17 N         139.7893  144.8763  162.9113 N.ar    1  UNL1       -0.2297
     18 C         139.6949  146.0106  161.9344 C.ar    1  UNL1        0.1067
     19 C         140.3785  145.5892  160.6674 C.ar    1  UNL1        0.0577
     20 S         140.8953  144.1945  160.8614 S.2     1  UNL1       -0.0586
     21 C         141.8166  138.4355  164.7105 C.2     1  UNL1        0.3447
     22 O         140.8199  137.3166  164.6417 O.2     1  UNL1       -0.2450
     23 O         143.1346  138.2248  165.3949 O.3     1  UNL1       -0.4455
     24 C         145.1174  139.4804  164.2805 C.3     1  UNL1        0.0513
     25 C         144.1521  139.3266  165.4184 C.3     1  UNL1        0.2089
     26 C         142.3910  138.9220  161.8065 C.3     1  UNL1        0.1405
     27 N         142.2890  138.9807  160.3111 N.3     1  UNL1       -0.2617
     28 C         143.4049  139.5780  159.5061 C.3     1  UNL1        0.1050
     29 C         143.3028  139.6366  158.0107 C.3     1  UNL1        0.1595
     30 O         142.0850  139.0980  157.3203 O.3     1  UNL1       -0.3508
     31 C         140.9690  138.5008  158.1253 C.3     1  UNL1        0.1603
     32 C         141.0710  138.4421  159.6207 C.3     1  UNL1        0.1050
     33 C         139.7512  137.9622  157.4350 C.3     1  UNL1        0.1680
     34 O         139.8763  136.8081  156.4850 O.3     1  UNL1       -0.3795
     35 H         140.3941  137.0808  155.7114 H       1  UNL1        0.2105
@<TRIPOS>BOND
     1    24    25    1
     2    25    23    1
     3    23    21    1
     4    21    22    2
     5    21     1    1
     6     1     2    2
     7     2    26    1
     8    26    27    1
     9    27    28    1
    10    28    29    1
    11    29    30    1
    12    30    31    1
    13    31    33    1
    14    33    34    1
    15    31    32    1
    16     2     3    1
    17     3     4    1
    18     4    16    1
    19    16    17   ar
    20    17    18   ar
    21    18    19   ar
    22    19    20   ar
    23     4     5    2
    24     5     6    1
    25     6     8    1
    26     8     9   ar
    27     9    10   ar
    28    10    11   ar
    29    11    12    1
    30    11    13   ar
    31    13    14   ar
    32    14    15    1
    33     6     1    1
    34    14     8   ar
    35    32    27    1
    36    20    16   ar
    37    34    35    1
    38     3     7    1
@<TRIPOS>MOLECULE
*****
 35 38 0 0 0
SMALL
GASTEIGER

@<TRIPOS>ATOM
      1 C         140.2317  141.0232  160.9706 C.2     1  UNL1        0.1397
      2 C         140.3994  140.1767  159.7437 C.2     1  UNL1        0.1355
      3 N         139.4878  140.3706  158.5684 N.pl3   1  UNL1       -0.1998
      4 C         138.4084  141.4108  158.6200 C.2     1  UNL1        0.3442
      5 N         138.2406  142.2572  159.8469 N.2     1  UNL1       -0.0580
      6 C         139.1522  142.0634  161.0222 C.3     1  UNL1        0.2692
      7 H         139.5979  139.8150  157.7631 H       1  UNL1        0.2983
      8 C         138.9844  142.9099  162.2492 C.ar    1  UNL1        0.0371
      9 C         139.7340  144.2029  162.3766 C.ar    1  UNL1        0.0030
     10 C         139.5662  145.0494  163.6034 C.ar    1  UNL1        0.0295
     11 C         138.6488  144.6029  164.7030 C.ar    1  UNL1        0.1406
     12 F         138.4810  145.4493  165.9299 F       1  UNL1       -0.2042
     13 C         137.8992  143.3099  164.5756 C.ar    1  UNL1        0.0362
     14 C         138.0670  142.4634  163.3487 C.ar    1  UNL1        0.0372
     15 BR        137.3174  141.1704  163.2213 Br      1  UNL1       -0.0491
     16 C         137.4967  141.6046  157.4447 C.ar    1  UNL1        0.1931
     17 N         136.4476  140.6412  156.9743 N.ar    1  UNL1       -0.2297
     18 C         135.7766  141.2370  155.7723 C.ar    1  UNL1        0.1067
     19 C         136.4111  142.5687  155.4998 C.ar    1  UNL1        0.0577
     20 S         137.4741  142.7958  156.5334 S.2     1  UNL1       -0.0586
     21 C         141.1433  140.8293  162.1459 C.2     1  UNL1        0.3447
     22 O         142.4868  141.4959  162.1709 O.2     1  UNL1       -0.2450
     23 O         140.7114  139.9690  163.2962 O.3     1  UNL1       -0.4455
     24 C         139.3379  137.8148  162.8242 C.3     1  UNL1        0.0513
     25 C         140.6463  138.4791  163.1354 C.3     1  UNL1        0.2089
     26 C         141.4789  139.1364  159.6920 C.3     1  UNL1        0.1405
     27 N         142.4126  139.0820  158.5193 N.3     1  UNL1       -0.2617
     28 C         143.2280  140.2866  158.1533 C.3     1  UNL1        0.1050
     29 C         144.1617  140.2322  156.9806 C.3     1  UNL1        0.1595
     30 O         144.2799  138.9732  156.1738 O.3     1  UNL1       -0.3508
     31 C         143.4645  137.7686  156.5398 C.3     1  UNL1        0.1603
     32 C         142.5308  137.8230  157.7125 C.3     1  UNL1        0.1050
     33 C         143.5827  136.5095  155.7331 C.3     1  UNL1        0.1680
     34 O         144.8815  136.1651  155.0664 O.3     1  UNL1       -0.3795
     35 H         145.0740  136.8188  154.3761 H       1  UNL1        0.2105
@<TRIPOS>BOND
     1    24    25    1
     2    25    23    1
     3    23    21    1
     4    21    22    2
     5    21     1    1
     6     1     2    2
     7     2    26    1
     8    26    27    1
     9    27    28    1
    10    28    29    1
    11    29    30    1
    12    30    31    1
    13    31    33    1
    14    33    34    1
    15    31    32    1
    16     2     3    1
    17     3     4    1
    18     4    16    1
    19    16    17   ar
    20    17    18   ar
    21    18    19   ar
    22    19    20   ar
    23     4     5    2
    24     5     6    1
    25     6     8    1
    26     8     9   ar
    27     9    10   ar
    28    10    11   ar
    29    11    12    1
    30    11    13   ar
    31    13    14   ar
    32    14    15    1
    33     6     1    1
    34    14     8   ar
    35    32    27    1
    36    20    16   ar
    37    34    35    1
    38     3     7    1
@<TRIPOS>MOLECULE
*****
 35 38 0 0 0
SMALL
GASTEIGER

@<TRIPOS>ATOM
      1 C         139.9171  141.1646  160.8844 C.2     1  UNL1        0.1397
      2 C         140.0923  140.4196  159.5944 C.2     1  UNL1        0.1355
      3 N         139.4468  140.9295  158.3402 N.pl3   1  UNL1       -0.1998
      4 C         138.6261  142.1846  158.3759 C.2     1  UNL1        0.3442
      5 N         138.4509  142.9296  159.6659 N.2     1  UNL1       -0.0580
      6 C         139.0964  142.4196  160.9202 C.3     1  UNL1        0.2692
      7 H         139.5617  140.4405  157.4935 H       1  UNL1        0.2983
      8 C         138.9212  143.1647  162.2102 C.ar    1  UNL1        0.0371
      9 C         137.8032  142.7997  163.1413 C.ar    1  UNL1        0.0030
     10 C         137.6280  143.5447  164.4313 C.ar    1  UNL1        0.0295
     11 C         138.5707  144.6549  164.7903 C.ar    1  UNL1        0.1406
     12 F         138.3954  145.4000  166.0803 F       1  UNL1       -0.2042
     13 C         139.6886  145.0200  163.8592 C.ar    1  UNL1        0.0362
     14 C         139.8639  144.2749  162.5692 C.ar    1  UNL1        0.0372
     15 BR        140.9818  144.6400  161.6381 Br      1  UNL1       -0.0491
     16 C         137.9805  142.6945  157.1216 C.ar    1  UNL1        0.1931
     17 N         138.3862  143.9192  156.3563 N.ar    1  UNL1       -0.2297
     18 C         137.4724  144.0509  155.1741 C.ar    1  UNL1        0.1067
     19 C         136.5019  142.9077  155.2087 C.ar    1  UNL1        0.0577
     20 S         136.8160  142.0694  156.4123 S.2     1  UNL1       -0.0586
     21 C         140.5626  140.6546  162.1387 C.2     1  UNL1        0.3447
     22 O         141.8364  141.2742  162.6320 O.2     1  UNL1       -0.2450
     23 O         139.9343  139.5250  162.8997 O.3     1  UNL1       -0.4455
     24 C         137.9704  138.1565  161.8896 C.3     1  UNL1        0.0513
     25 C         138.4626  139.2633  162.7744 C.3     1  UNL1        0.2089
     26 C         140.9130  139.1645  159.5587 C.3     1  UNL1        0.1405
     27 N         141.9591  138.9823  158.4992 N.3     1  UNL1       -0.2617
     28 C         142.0071  137.7119  157.7031 C.3     1  UNL1        0.1050
     29 C         143.0532  137.5298  156.6436 C.3     1  UNL1        0.1595
     30 O         144.0513  138.6181  156.3802 O.3     1  UNL1       -0.3508
     31 C         144.0033  139.8886  157.1762 C.3     1  UNL1        0.1603
     32 C         142.9572  140.0707  158.2357 C.3     1  UNL1        0.1050
     33 C         145.0013  140.9769  156.9128 C.3     1  UNL1        0.1680
     34 O         146.2656  140.6704  156.1660 O.3     1  UNL1       -0.3795
     35 H         146.8154  140.0702  156.6936 H       1  UNL1        0.2105
@<TRIPOS>BOND
     1    24    25    1
     2    25    23    1
     3    23    21    1
     4    21    22    2
     5    21     1    1
     6     1     2    2
     7     2    26    1
     8    26    27    1
     9    27    28    1
    10    28    29    1
    11    29    30    1
    12    30    31    1
    13    31    33    1
    14    33    34    1
    15    31    32    1
    16     2     3    1
    17     3     4    1
    18     4    16    1
    19    16    17   ar
    20    17    18   ar
    21    18    19   ar
    22    19    20   ar
    23     4     5    2
    24     5     6    1
    25     6     8    1
    26     8     9   ar
    27     9    10   ar
    28    10    11   ar
    29    11    12    1
    30    11    13   ar
    31    13    14   ar
    32    14    15    1
    33     6     1    1
    34    14     8   ar
    35    32    27    1
    36    20    16   ar
    37    34    35    1
    38     3     7    1
@<TRIPOS>MOLECULE
*****
 35 38 0 0 0
SMALL
GASTEIGER

@<TRIPOS>ATOM
      1 C         140.4802  141.2349  161.0876 C.2     1  UNL1        0.1397
      2 C         140.7127  140.4153  159.8531 C.2     1  UNL1        0.1355
      3 N         139.7865  140.5464  158.6804 N.pl3   1  UNL1       -0.1998
      4 C         138.6279  141.4970  158.7424 C.2     1  UNL1        0.3442
      5 N         138.3955  142.3166  159.9769 N.2     1  UNL1       -0.0580
      6 C         139.3217  142.1855  161.1496 C.3     1  UNL1        0.2692
      7 H         139.9391  140.0084  157.8701 H       1  UNL1        0.2983
      8 C         139.0892  143.0052  162.3842 C.ar    1  UNL1        0.0371
      9 C         139.8113  144.3071  162.5670 C.ar    1  UNL1        0.0030
     10 C         139.5789  145.1268  163.8015 C.ar    1  UNL1        0.0295
     11 C         138.6243  144.6445  164.8533 C.ar    1  UNL1        0.1406
     12 F         138.3918  145.4641  166.0878 F       1  UNL1       -0.2042
     13 C         137.9021  143.3425  164.6705 C.ar    1  UNL1        0.0362
     14 C         138.1346  142.5229  163.4359 C.ar    1  UNL1        0.0372
     15 BR        137.4125  141.2209  163.2530 Br      1  UNL1       -0.0491
     16 C         137.7018  141.6281  157.5697 C.ar    1  UNL1        0.1931
     17 N         136.6946  140.6101  157.1236 N.ar    1  UNL1       -0.2297
     18 C         135.9905  141.1530  155.9155 C.ar    1  UNL1        0.1067
     19 C         136.5627  142.5067  155.6149 C.ar    1  UNL1        0.0577
     20 S         137.6203  142.8003  156.6373 S.2     1  UNL1       -0.0586
     21 C         141.4064  141.1038  162.2603 C.2     1  UNL1        0.3447
     22 O         140.9402  140.4204  163.5114 O.2     1  UNL1       -0.2450
     23 O         142.7987  141.6561  162.1817 O.3     1  UNL1       -0.4455
     24 C         143.4834  144.1524  162.4055 C.3     1  UNL1        0.0513
     25 C         143.0390  142.9983  161.5565 C.3     1  UNL1        0.2089
     26 C         141.8713  139.4646  159.7911 C.3     1  UNL1        0.1405
     27 N         142.8012  139.4912  158.6144 N.3     1  UNL1       -0.2617
     28 C         143.7755  140.6203  158.4539 C.3     1  UNL1        0.1050
     29 C         144.7054  140.6469  157.2772 C.3     1  UNL1        0.1595
     30 O         144.6610  139.5444  156.2611 O.3     1  UNL1       -0.3508
     31 C         143.6867  138.4153  156.4216 C.3     1  UNL1        0.1603
     32 C         142.7568  138.3886  157.5983 C.3     1  UNL1        0.1050
     33 C         143.6423  137.3127  155.4056 C.3     1  UNL1        0.1680
     34 O         144.8298  136.4151  155.2205 O.3     1  UNL1       -0.3795
     35 H         145.5728  136.9301  154.8688 H       1  UNL1        0.2105
@<TRIPOS>BOND
     1    24    25    1
     2    25    23    1
     3    23    21    1
     4    21    22    2
     5    21     1    1
     6     1     2    2
     7     2    26    1
     8    26    27    1
     9    27    28    1
    10    28    29    1
    11    29    30    1
    12    30    31    1
    13    31    33    1
    14    33    34    1
    15    31    32    1
    16     2     3    1
    17     3     4    1
    18     4    16    1
    19    16    17   ar
    20    17    18   ar
    21    18    19   ar
    22    19    20   ar
    23     4     5    2
    24     5     6    1
    25     6     8    1
    26     8     9   ar
    27     9    10   ar
    28    10    11   ar
    29    11    12    1
    30    11    13   ar
    31    13    14   ar
    32    14    15    1
    33     6     1    1
    34    14     8   ar
    35    32    27    1
    36    20    16   ar
    37    34    35    1
    38     3     7    1
@<TRIPOS>MOLECULE
*****
 35 38 0 0 0
SMALL
GASTEIGER

@<TRIPOS>ATOM
      1 C         140.1000  141.3912  161.0455 C.2     1  UNL1        0.1397
      2 C         140.3446  140.7083  159.7326 C.2     1  UNL1        0.1355
      3 N         139.8400  141.3242  158.4613 N.pl3   1  UNL1       -0.1998
      4 C         139.0908  142.6230  158.5030 C.2     1  UNL1        0.3442
      5 N         138.8462  143.3059  159.8159 N.2     1  UNL1       -0.0580
      6 C         139.3508  142.6900  161.0871 C.3     1  UNL1        0.2692
      7 H         140.0006  140.8759  157.5996 H       1  UNL1        0.2983
      8 C         139.1062  143.3730  162.4001 C.ar    1  UNL1        0.0371
      9 C         137.8802  143.0444  163.1994 C.ar    1  UNL1        0.0030
     10 C         137.6355  143.7273  164.5123 C.ar    1  UNL1        0.0295
     11 C         138.6169  144.7389  165.0259 C.ar    1  UNL1        0.1406
     12 F         138.3722  145.4218  166.3388 F       1  UNL1       -0.2042
     13 C         139.8428  145.0676  164.2265 C.ar    1  UNL1        0.0362
     14 C         140.0875  144.3846  162.9136 C.ar    1  UNL1        0.0372
     15 BR        141.3134  144.7132  162.1142 Br      1  UNL1       -0.0491
     16 C         138.5862  143.2388  157.2317 C.ar    1  UNL1        0.1931
     17 N         139.1952  144.4080  156.5160 N.ar    1  UNL1       -0.2297
     18 C         138.3694  144.6854  155.2949 C.ar    1  UNL1        0.1067
     19 C         137.2500  143.6877  155.2559 C.ar    1  UNL1        0.0577
     20 S         137.3840  142.7937  156.4529 S.2     1  UNL1       -0.0586
     21 C         140.6046  140.7753  162.3167 C.2     1  UNL1        0.3447
     22 O         141.8558  141.2979  162.9582 O.2     1  UNL1       -0.2450
     23 O         139.8581  139.6369  162.9465 O.3     1  UNL1       -0.4455
     24 C         137.8698  138.4026  161.8182 C.3     1  UNL1        0.0513
     25 C         138.3833  139.4886  162.7165 C.3     1  UNL1        0.2089
     26 C         141.0939  139.4094  159.6909 C.3     1  UNL1        0.1405
     27 N         141.4940  138.8164  158.3725 N.3     1  UNL1       -0.2617
     28 C         142.8897  139.0071  157.8570 C.3     1  UNL1        0.1050
     29 C         143.2898  138.4140  156.5385 C.3     1  UNL1        0.1595
     30 O         142.2943  137.6303  155.7356 O.3     1  UNL1       -0.3508
     31 C         140.8986  137.4397  156.2511 C.3     1  UNL1        0.1603
     32 C         140.4985  138.0327  157.5695 C.3     1  UNL1        0.1050
     33 C         139.9031  136.6560  155.4482 C.3     1  UNL1        0.1680
     34 O         138.4494  136.6896  155.8167 O.3     1  UNL1       -0.3795
     35 H         138.3255  136.2704  156.6826 H       1  UNL1        0.2105
@<TRIPOS>BOND
     1    24    25    1
     2    25    23    1
     3    23    21    1
     4    21    22    2
     5    21     1    1
     6     1     2    2
     7     2    26    1
     8    26    27    1
     9    27    28    1
    10    28    29    1
    11    29    30    1
    12    30    31    1
    13    31    33    1
    14    33    34    1
    15    31    32    1
    16     2     3    1
    17     3     4    1
    18     4    16    1
    19    16    17   ar
    20    17    18   ar
    21    18    19   ar
    22    19    20   ar
    23     4     5    2
    24     5     6    1
    25     6     8    1
    26     8     9   ar
    27     9    10   ar
    28    10    11   ar
    29    11    12    1
    30    11    13   ar
    31    13    14   ar
    32    14    15    1
    33     6     1    1
    34    14     8   ar
    35    32    27    1
    36    20    16   ar
    37    34    35    1
    38     3     7    1
@<TRIPOS>MOLECULE
*****
 35 38 0 0 0
SMALL
GASTEIGER

@<TRIPOS>ATOM
      1 C         142.8075  143.1327  160.2160 C.2     1  UNL1        0.1397
      2 C         142.4722  143.9039  158.9740 C.2     1  UNL1        0.1355
      3 N         143.2466  143.6662  157.7116 N.pl3   1  UNL1       -0.1998
      4 C         144.3564  142.6572  157.6912 C.2     1  UNL1        0.3442
      5 N         144.6917  141.8860  158.9332 N.2     1  UNL1       -0.0580
      6 C         143.9172  142.1237  160.1956 C.3     1  UNL1        0.2692
      7 H         143.0266  144.1724  156.8964 H       1  UNL1        0.2983
      8 C         144.2526  141.3524  161.4377 C.ar    1  UNL1        0.0371
      9 C         145.1841  141.9394  162.4565 C.ar    1  UNL1        0.0030
     10 C         145.5194  141.1682  163.6985 C.ar    1  UNL1        0.0295
     11 C         144.9233  139.8099  163.9219 C.ar    1  UNL1        0.1406
     12 F         145.2587  139.0386  165.1639 F       1  UNL1       -0.2042
     13 C         143.9919  139.2229  162.9031 C.ar    1  UNL1        0.0362
     14 C         143.6565  139.9942  161.6610 C.ar    1  UNL1        0.0372
     15 BR        142.7251  139.4072  160.6423 Br      1  UNL1       -0.0491
     16 C         145.1308  142.4194  156.4287 C.ar    1  UNL1        0.1931
     17 N         144.5759  142.4477  155.0354 N.ar    1  UNL1       -0.2297
     18 C         145.6982  142.1574  154.0835 C.ar    1  UNL1        0.1067
     19 C         146.9467  141.9497  154.8885 C.ar    1  UNL1        0.0577
     20 S         146.5960  142.1117  156.3379 S.2     1  UNL1       -0.0586
     21 C         142.0331  143.3704  161.4785 C.2     1  UNL1        0.3447
     22 O         140.9008  142.4582  161.8468 O.2     1  UNL1       -0.2450
     23 O         142.3911  144.5204  162.3726 O.3     1  UNL1       -0.4455
     24 C         140.2044  145.9181  162.2511 C.3     1  UNL1        0.0513
     25 C         141.3099  145.3030  163.0571 C.3     1  UNL1        0.2089
     26 C         141.3625  144.9130  158.9944 C.3     1  UNL1        0.1405
     27 N         140.3882  144.9793  157.8559 N.3     1  UNL1       -0.2617
     28 C         139.6438  143.7476  157.4330 C.3     1  UNL1        0.1050
     29 C         138.6694  143.8140  156.2944 C.3     1  UNL1        0.1595
     30 O         138.4395  145.1121  155.5788 O.3     1  UNL1       -0.3508
     31 C         139.1839  146.3438  156.0016 C.3     1  UNL1        0.1603
     32 C         140.1582  146.2774  157.1402 C.3     1  UNL1        0.1050
     33 C         138.9540  147.6418  155.2860 C.3     1  UNL1        0.1680
     34 O         138.2831  148.7807  155.9953 O.3     1  UNL1       -0.3795
     35 H         137.3648  148.5409  156.1956 H       1  UNL1        0.2105
@<TRIPOS>BOND
     1    24    25    1
     2    25    23    1
     3    23    21    1
     4    21    22    2
     5    21     1    1
     6     1     2    2
     7     2    26    1
     8    26    27    1
     9    27    28    1
    10    28    29    1
    11    29    30    1
    12    30    31    1
    13    31    33    1
    14    33    34    1
    15    31    32    1
    16     2     3    1
    17     3     4    1
    18     4    16    1
    19    16    17   ar
    20    17    18   ar
    21    18    19   ar
    22    19    20   ar
    23     4     5    2
    24     5     6    1
    25     6     8    1
    26     8     9   ar
    27     9    10   ar
    28    10    11   ar
    29    11    12    1
    30    11    13   ar
    31    13    14   ar
    32    14    15    1
    33     6     1    1
    34    14     8   ar
    35    32    27    1
    36    20    16   ar
    37    34    35    1
    38     3     7    1
