@<TRIPOS>MOLECULE
*****
 35 39 0 0 0
SMALL
GASTEIGER

@<TRIPOS>ATOM
      1 C         144.3574  141.4396  158.3939 C.3     1  UNL1        0.0666
      2 C         144.1068  142.5169  159.4071 C.3     1  UNL1        0.0294
      3 C         144.8585  142.5151  160.7053 C.3     1  UNL1        0.0730
      4 C         139.5381  140.0942  170.2499 C.3     1  UNL1        0.0950
      5 C         140.2511  140.4187  168.9707 C.ar    1  UNL1        0.2062
      6 N         141.5171  139.7805  168.4806 N.ar    1  UNL1       -0.2121
      7 C         141.8717  140.4057  167.1641 C.ar    1  UNL1        0.1182
      8 C         143.0126  140.1744  166.2180 C.ar    1  UNL1        0.0178
      9 C         143.1068  140.9677  164.9484 C.ar    1  UNL1       -0.0230
     10 C         142.0601  141.9922  164.6249 C.ar    1  UNL1       -0.0216
     11 C         140.9193  142.2236  165.5708 C.ar    1  UNL1        0.0346
     12 C         140.8250  141.4303  166.8405 C.ar    1  UNL1        0.1640
     13 O         139.8235  141.4383  167.9571 O.2     1  UNL1       -0.4384
     14 C         141.9650  142.8847  163.4230 C.3     1  UNL1        0.0434
     15 C         142.8931  142.9730  162.2479 C.3     1  UNL1        0.0768
     16 N         144.1454  142.1907  161.9845 N.3     1  UNL1       -0.2720
     17 C         144.7791  141.1268  162.8310 C.3     1  UNL1        0.0768
     18 C         144.3169  140.5825  164.1501 C.3     1  UNL1        0.0434
     19 S         143.5160  140.1979  158.3957 S.3     1  UNL1       -0.0756
     20 C         143.2026  139.5062  159.6893 C.ar    1  UNL1        0.1932
     21 N         144.0501  138.4667  160.3610 N.ar    1  UNL1       -0.1221
     22 N         143.3582  138.0505  161.6251 N.ar    1  UNL1       -0.1282
     23 C         142.0830  138.8328  161.7346 C.ar    1  UNL1        0.1668
     24 N         141.9868  139.7324  160.5382 N.ar    1  UNL1       -0.2884
     25 C         140.8709  140.6902  160.2426 C.3     1  UNL1        0.1340
     26 C         141.0800  138.7329  162.8455 C.ar    1  UNL1        0.0359
     27 C         141.2993  137.7638  163.9691 C.ar    1  UNL1        0.0030
     28 C         140.2963  137.6639  165.0800 C.ar    1  UNL1        0.0039
     29 C         139.0740  138.5332  165.0673 C.ar    1  UNL1        0.0714
     30 C         138.8546  139.5023  163.9436 C.ar    1  UNL1        0.0039
     31 C         139.8576  139.6022  162.8327 C.ar    1  UNL1        0.0030
     32 C         138.0710  138.4333  166.1781 C.3     1  UNL1        0.4186
     33 F         137.0680  138.3335  167.2890 F       1  UNL1       -0.1659
     34 F         137.9470  139.9280  166.2006 F       1  UNL1       -0.1659
     35 F         138.1950  136.9386  166.1557 F       1  UNL1       -0.1659
@<TRIPOS>BOND
     1     4     5    1
     2     5     6   ar
     3     6     7   ar
     4     7     8   ar
     5     8     9   ar
     6     9    10   ar
     7    10    11   ar
     8    11    12   ar
     9    12    13   ar
    10    10    14    1
    11    14    15    1
    12    15    16    1
    13    16     3    1
    14     3     2    1
    15     2     1    1
    16     1    19    1
    17    19    20    1
    18    20    21   ar
    19    21    22   ar
    20    22    23   ar
    21    23    26    1
    22    26    27   ar
    23    27    28   ar
    24    28    29   ar
    25    29    32    1
    26    32    33    1
    27    32    34    1
    28    32    35    1
    29    29    30   ar
    30    30    31   ar
    31    23    24   ar
    32    24    25    1
    33    16    17    1
    34    17    18    1
    35    13     5   ar
    36    24    20   ar
    37    12     7   ar
    38    31    26   ar
    39    18     9    1
@<TRIPOS>MOLECULE
*****
 35 39 0 0 0
SMALL
GASTEIGER

@<TRIPOS>ATOM
      1 C         143.1062  140.2460  157.2622 C.3     1  UNL1        0.0666
      2 C         143.9990  140.9022  158.2733 C.3     1  UNL1        0.0294
      3 C         143.4390  141.9255  159.2164 C.3     1  UNL1        0.0730
      4 C         141.7900  139.3133  169.9739 C.3     1  UNL1        0.0950
      5 C         142.0110  139.6634  168.5322 C.ar    1  UNL1        0.2062
      6 N         141.1076  140.5056  167.6809 N.ar    1  UNL1       -0.2121
      7 C         141.7125  140.5954  166.3112 C.ar    1  UNL1        0.1182
      8 C         141.2653  141.2920  165.0602 C.ar    1  UNL1        0.0178
      9 C         142.0953  141.2018  163.8140 C.ar    1  UNL1       -0.0230
     10 C         143.3724  140.4152  163.8188 C.ar    1  UNL1       -0.0216
     11 C         143.8196  139.7187  165.0697 C.ar    1  UNL1        0.0346
     12 C         142.9897  139.8088  166.3159 C.ar    1  UNL1        0.1640
     13 O         143.1741  139.2327  167.6886 O.2     1  UNL1       -0.4384
     14 C         144.3415  140.1984  162.6945 C.3     1  UNL1        0.0434
     15 C         144.2727  140.7148  161.2878 C.3     1  UNL1        0.0768
     16 N         143.2180  141.5754  160.6581 N.3     1  UNL1       -0.2720
     17 C         141.9714  142.1323  161.2794 C.3     1  UNL1        0.0768
     18 C         141.4717  141.9660  162.6839 C.3     1  UNL1        0.0434
     19 S         142.4817  138.9161  157.5640 S.3     1  UNL1       -0.0756
     20 C         142.3693  138.4453  158.9838 C.ar    1  UNL1        0.1932
     21 N         143.3496  137.5653  159.7011 N.ar    1  UNL1       -0.1221
     22 N         142.8430  137.3479  161.0962 N.ar    1  UNL1       -0.1282
     23 C         141.5495  138.0936  161.2410 C.ar    1  UNL1        0.1668
     24 N         141.2568  138.7718  159.9355 N.ar    1  UNL1       -0.2884
     25 C         140.0613  139.6265  159.6345 C.3     1  UNL1        0.1340
     26 C         140.6983  138.1510  162.4747 C.ar    1  UNL1        0.0359
     27 C         141.1462  137.4588  163.7278 C.ar    1  UNL1        0.0030
     28 C         140.2950  137.5162  164.9616 C.ar    1  UNL1        0.0039
     29 C         138.9959  138.2658  164.9423 C.ar    1  UNL1        0.0714
     30 C         138.5480  138.9580  163.6892 C.ar    1  UNL1        0.0039
     31 C         139.3992  138.9006  162.4554 C.ar    1  UNL1        0.0030
     32 C         138.1446  138.3232  166.1760 C.3     1  UNL1        0.4186
     33 F         137.2934  138.3806  167.4097 F       1  UNL1       -0.1659
     34 F         137.9989  136.8306  166.1449 F       1  UNL1       -0.1659
     35 F         138.2903  139.8158  166.2071 F       1  UNL1       -0.1659
@<TRIPOS>BOND
     1     4     5    1
     2     5     6   ar
     3     6     7   ar
     4     7     8   ar
     5     8     9   ar
     6     9    10   ar
     7    10    11   ar
     8    11    12   ar
     9    12    13   ar
    10    10    14    1
    11    14    15    1
    12    15    16    1
    13    16     3    1
    14     3     2    1
    15     2     1    1
    16     1    19    1
    17    19    20    1
    18    20    21   ar
    19    21    22   ar
    20    22    23   ar
    21    23    26    1
    22    26    27   ar
    23    27    28   ar
    24    28    29   ar
    25    29    32    1
    26    32    33    1
    27    32    34    1
    28    32    35    1
    29    29    30   ar
    30    30    31   ar
    31    23    24   ar
    32    24    25    1
    33    16    17    1
    34    17    18    1
    35    13     5   ar
    36    24    20   ar
    37    12     7   ar
    38    31    26   ar
    39    18     9    1
@<TRIPOS>MOLECULE
*****
 35 39 0 0 0
SMALL
GASTEIGER

@<TRIPOS>ATOM
      1 C         140.0675  144.8839  159.0466 C.3     1  UNL1        0.0666
      2 C         140.5655  145.7625  160.1557 C.3     1  UNL1        0.0294
      3 C         139.8032  145.8480  161.4447 C.3     1  UNL1        0.0730
      4 C         142.3743  139.0188  169.9311 C.3     1  UNL1        0.0950
      5 C         142.0297  139.9341  168.7938 C.ar    1  UNL1        0.2062
      6 N         142.9749  140.8651  168.0938 N.ar    1  UNL1       -0.2121
      7 C         142.2088  141.5854  167.0242 C.ar    1  UNL1        0.1182
      8 C         142.6197  142.6210  166.0198 C.ar    1  UNL1        0.0178
      9 C         141.6119  143.1707  165.0542 C.ar    1  UNL1       -0.0230
     10 C         140.1934  142.6849  165.0930 C.ar    1  UNL1       -0.0216
     11 C         139.7824  141.6493  166.0974 C.ar    1  UNL1        0.0346
     12 C         140.7901  141.0996  167.0630 C.ar    1  UNL1        0.1640
     13 O         140.6795  140.0790  168.1566 O.2     1  UNL1       -0.4384
     14 C         139.0394  143.0975  164.2280 C.3     1  UNL1        0.0434
     15 C         139.0192  144.0980  163.1105 C.3     1  UNL1        0.0768
     16 N         140.1477  144.9328  162.5821 N.3     1  UNL1       -0.2720
     17 C         141.5754  144.9734  163.0406 C.3     1  UNL1        0.0768
     18 C         142.2270  144.1892  164.1408 C.3     1  UNL1        0.0434
     19 S         140.8147  143.6342  158.6867 S.3     1  UNL1       -0.0756
     20 C         141.8798  143.1072  159.6021 C.ar    1  UNL1        0.1932
     21 N         143.3347  143.4701  159.5630 N.ar    1  UNL1       -0.1221
     22 N         144.0310  142.7121  160.6541 N.ar    1  UNL1       -0.1282
     23 C         143.0065  141.8807  161.3675 C.ar    1  UNL1        0.1668
     24 N         141.6769  142.1249  160.7174 N.ar    1  UNL1       -0.2884
     25 C         140.3734  141.4969  161.1131 C.3     1  UNL1        0.1340
     26 C         143.2659  140.9657  162.5275 C.ar    1  UNL1        0.0359
     27 C         144.6181  140.9421  163.1764 C.ar    1  UNL1        0.0030
     28 C         144.8775  140.0271  164.3363 C.ar    1  UNL1        0.0039
     29 C         143.7848  139.1357  164.8474 C.ar    1  UNL1        0.0714
     30 C         142.4326  139.1593  164.1985 C.ar    1  UNL1        0.0039
     31 C         142.1732  140.0742  163.0386 C.ar    1  UNL1        0.0030
     32 C         144.0442  138.2207  166.0074 C.3     1  UNL1        0.4186
     33 F         144.3037  137.3057  167.1673 F       1  UNL1       -0.1659
     34 F         142.5675  138.0951  166.2386 F       1  UNL1       -0.1659
     35 F         145.5210  138.3463  165.7761 F       1  UNL1       -0.1659
@<TRIPOS>BOND
     1     4     5    1
     2     5     6   ar
     3     6     7   ar
     4     7     8   ar
     5     8     9   ar
     6     9    10   ar
     7    10    11   ar
     8    11    12   ar
     9    12    13   ar
    10    10    14    1
    11    14    15    1
    12    15    16    1
    13    16     3    1
    14     3     2    1
    15     2     1    1
    16     1    19    1
    17    19    20    1
    18    20    21   ar
    19    21    22   ar
    20    22    23   ar
    21    23    26    1
    22    26    27   ar
    23    27    28   ar
    24    28    29   ar
    25    29    32    1
    26    32    33    1
    27    32    34    1
    28    32    35    1
    29    29    30   ar
    30    30    31   ar
    31    23    24   ar
    32    24    25    1
    33    16    17    1
    34    17    18    1
    35    13     5   ar
    36    24    20   ar
    37    12     7   ar
    38    31    26   ar
    39    18     9    1
@<TRIPOS>MOLECULE
*****
 35 39 0 0 0
SMALL
GASTEIGER

@<TRIPOS>ATOM
      1 C         144.0925  141.6796  158.5860 C.3     1  UNL1        0.0666
      2 C         144.3406  142.4306  159.8606 C.3     1  UNL1        0.0294
      3 C         143.2358  143.2272  160.4890 C.3     1  UNL1        0.0730
      4 C         140.7942  141.8339  171.3225 C.3     1  UNL1        0.0950
      5 C         141.1214  142.0207  169.8706 C.ar    1  UNL1        0.2062
      6 N         140.1960  142.5600  168.8204 N.ar    1  UNL1       -0.2121
      7 C         140.9341  142.5735  167.5148 C.ar    1  UNL1        0.1182
      8 C         140.5267  143.0007  166.1358 C.ar    1  UNL1        0.0178
      9 C         141.5010  142.8969  164.9999 C.ar    1  UNL1       -0.0230
     10 C         142.8825  142.3660  165.2431 C.ar    1  UNL1       -0.0216
     11 C         143.2900  141.9388  166.6219 C.ar    1  UNL1        0.0346
     12 C         142.3158  142.0425  167.7578 C.ar    1  UNL1        0.1640
     13 O         142.4315  141.7009  169.2138 O.2     1  UNL1       -0.4384
     14 C         143.9999  142.1809  164.2595 C.3     1  UNL1        0.0434
     15 C         144.0114  142.4811  162.7898 C.3     1  UNL1        0.0768
     16 N         142.9086  143.0405  161.9409 N.3     1  UNL1       -0.2720
     17 C         141.5217  143.4379  162.3518 C.3     1  UNL1        0.0768
     18 C         140.8953  143.3740  163.7132 C.3     1  UNL1        0.0434
     19 S         143.6886  140.2359  158.6326 S.3     1  UNL1       -0.0756
     20 C         143.4020  139.5794  159.9505 C.ar    1  UNL1        0.1932
     21 N         144.3470  138.7111  160.7270 N.ar    1  UNL1       -0.1221
     22 N         143.6492  138.2710  161.9797 N.ar    1  UNL1       -0.1282
     23 C         142.2729  138.8674  161.9775 C.ar    1  UNL1        0.1668
     24 N         142.1201  139.6761  160.7234 N.ar    1  UNL1       -0.2884
     25 C         140.8996  140.4461  160.3140 C.3     1  UNL1        0.1340
     26 C         141.2320  138.6869  163.0424 C.ar    1  UNL1        0.0359
     27 C         139.9873  137.9029  162.7493 C.ar    1  UNL1        0.0030
     28 C         138.9464  137.7223  163.8142 C.ar    1  UNL1        0.0039
     29 C         139.1503  138.3258  165.1723 C.ar    1  UNL1        0.0714
     30 C         140.3951  139.1098  165.4653 C.ar    1  UNL1        0.0039
     31 C         141.4359  139.2903  164.4004 C.ar    1  UNL1        0.0030
     32 C         138.1095  138.1452  166.2372 C.3     1  UNL1        0.4186
     33 F         137.0686  137.9647  167.3021 F       1  UNL1       -0.1659
     34 F         138.0967  136.6685  165.9743 F       1  UNL1       -0.1659
     35 F         138.1222  139.6220  166.5000 F       1  UNL1       -0.1659
@<TRIPOS>BOND
     1     4     5    1
     2     5     6   ar
     3     6     7   ar
     4     7     8   ar
     5     8     9   ar
     6     9    10   ar
     7    10    11   ar
     8    11    12   ar
     9    12    13   ar
    10    10    14    1
    11    14    15    1
    12    15    16    1
    13    16     3    1
    14     3     2    1
    15     2     1    1
    16     1    19    1
    17    19    20    1
    18    20    21   ar
    19    21    22   ar
    20    22    23   ar
    21    23    26    1
    22    26    27   ar
    23    27    28   ar
    24    28    29   ar
    25    29    32    1
    26    32    33    1
    27    32    34    1
    28    32    35    1
    29    29    30   ar
    30    30    31   ar
    31    23    24   ar
    32    24    25    1
    33    16    17    1
    34    17    18    1
    35    13     5   ar
    36    24    20   ar
    37    12     7   ar
    38    31    26   ar
    39    18     9    1
@<TRIPOS>MOLECULE
*****
 35 39 0 0 0
SMALL
GASTEIGER

@<TRIPOS>ATOM
      1 C         141.6484  145.0638  159.3875 C.3     1  UNL1        0.0666
      2 C         142.1514  143.6973  159.0272 C.3     1  UNL1        0.0294
      3 C         143.3470  143.1282  159.7321 C.3     1  UNL1        0.0730
      4 C         142.4200  139.4872  170.2749 C.3     1  UNL1        0.0950
      5 C         142.5442  139.9752  168.8620 C.ar    1  UNL1        0.2062
      6 N         142.9253  141.3629  168.4387 N.ar    1  UNL1       -0.2121
      7 C         142.9258  141.4064  166.9394 C.ar    1  UNL1        0.1182
      8 C         143.2238  142.5094  165.9674 C.ar    1  UNL1        0.0178
      9 C         143.1410  142.2516  164.4920 C.ar    1  UNL1       -0.0230
     10 C         142.7602  140.8910  163.9887 C.ar    1  UNL1       -0.0216
     11 C         142.4622  139.7880  164.9605 C.ar    1  UNL1        0.0346
     12 C         142.5450  140.0457  166.4359 C.ar    1  UNL1        0.1640
     13 O         142.3092  139.1612  167.6242 O.2     1  UNL1       -0.4384
     14 C         142.6199  140.4240  162.5700 C.3     1  UNL1        0.0434
     15 C         142.8258  141.2026  161.3045 C.3     1  UNL1        0.0768
     16 N         143.2227  142.6402  161.1451 N.3     1  UNL1       -0.2720
     17 C         143.5119  143.6545  162.2117 C.3     1  UNL1        0.0768
     18 C         143.4755  143.4816  163.7012 C.3     1  UNL1        0.0434
     19 S         140.3351  145.2169  160.0957 S.3     1  UNL1       -0.0756
     20 C         140.1416  144.6142  161.4556 C.ar    1  UNL1        0.1932
     21 N         140.3381  145.3155  162.7669 N.ar    1  UNL1       -0.1221
     22 N         140.0357  144.3391  163.8647 N.ar    1  UNL1       -0.1282
     23 C         139.6522  143.0343  163.2319 C.ar    1  UNL1        0.1668
     24 N         139.7177  143.2043  161.7429 N.ar    1  UNL1       -0.2884
     25 C         139.4128  142.1496  160.7209 C.3     1  UNL1        0.1340
     26 C         139.2703  141.7798  163.9601 C.ar    1  UNL1        0.0359
     27 C         138.8153  140.5751  163.1909 C.ar    1  UNL1        0.0030
     28 C         138.4334  139.3205  163.9191 C.ar    1  UNL1        0.0039
     29 C         138.5065  139.2706  165.4164 C.ar    1  UNL1        0.0714
     30 C         138.9615  140.4753  166.1856 C.ar    1  UNL1        0.0039
     31 C         139.3434  141.7299  165.4574 C.ar    1  UNL1        0.0030
     32 C         138.1246  138.0161  166.1446 C.3     1  UNL1        0.4186
     33 F         137.7427  136.7615  166.8728 F       1  UNL1       -0.1659
     34 F         138.7983  137.1958  165.0848 F       1  UNL1       -0.1659
     35 F         137.4508  138.8363  167.2044 F       1  UNL1       -0.1659
@<TRIPOS>BOND
     1     4     5    1
     2     5     6   ar
     3     6     7   ar
     4     7     8   ar
     5     8     9   ar
     6     9    10   ar
     7    10    11   ar
     8    11    12   ar
     9    12    13   ar
    10    10    14    1
    11    14    15    1
    12    15    16    1
    13    16     3    1
    14     3     2    1
    15     2     1    1
    16     1    19    1
    17    19    20    1
    18    20    21   ar
    19    21    22   ar
    20    22    23   ar
    21    23    26    1
    22    26    27   ar
    23    27    28   ar
    24    28    29   ar
    25    29    32    1
    26    32    33    1
    27    32    34    1
    28    32    35    1
    29    29    30   ar
    30    30    31   ar
    31    23    24   ar
    32    24    25    1
    33    16    17    1
    34    17    18    1
    35    13     5   ar
    36    24    20   ar
    37    12     7   ar
    38    31    26   ar
    39    18     9    1
@<TRIPOS>MOLECULE
*****
 35 39 0 0 0
SMALL
GASTEIGER

@<TRIPOS>ATOM
      1 C         143.1196  139.2922  157.8776 C.3     1  UNL1        0.0666
      2 C         143.0584  140.6305  158.5524 C.3     1  UNL1        0.0294
      3 C         144.0306  140.9650  159.6447 C.3     1  UNL1        0.0730
      4 C         140.3087  143.1838  169.9642 C.3     1  UNL1        0.0950
      5 C         140.8075  142.8864  168.5812 C.ar    1  UNL1        0.2062
      6 N         142.1302  142.2695  168.2345 N.ar    1  UNL1       -0.2121
      7 C         142.2113  142.1556  166.7411 C.ar    1  UNL1        0.1182
      8 C         143.2796  141.6248  165.8316 C.ar    1  UNL1        0.0178
      9 C         143.0753  141.6405  164.3456 C.ar    1  UNL1       -0.0230
     10 C         141.8029  142.1870  163.7693 C.ar    1  UNL1       -0.0216
     11 C         140.7347  142.7178  164.6787 C.ar    1  UNL1        0.0346
     12 C         140.9389  142.7021  166.1647 C.ar    1  UNL1        0.1640
     13 O         140.0713  143.1538  167.3019 O.2     1  UNL1       -0.4384
     14 C         141.3995  142.2953  162.3285 C.3     1  UNL1        0.0434
     15 C         142.1690  141.8837  161.1084 C.3     1  UNL1        0.0768
     16 N         143.5318  141.2623  161.0277 N.3     1  UNL1       -0.2720
     17 C         144.4618  140.8990  162.1471 C.3     1  UNL1        0.0768
     18 C         144.2587  141.0673  163.6237 C.3     1  UNL1        0.0434
     19 S         142.1377  138.2203  158.2473 S.3     1  UNL1       -0.0756
     20 C         141.0053  138.5301  159.1810 C.ar    1  UNL1        0.1932
     21 N         139.6450  139.0221  158.7844 N.ar    1  UNL1       -0.1221
     22 N         138.8334  139.1983  160.0336 N.ar    1  UNL1       -0.1282
     23 C         139.6923  138.8151  161.2021 C.ar    1  UNL1        0.1668
     24 N         141.0346  138.4021  160.6752 N.ar    1  UNL1       -0.2884
     25 C         142.2013  137.9420  161.4982 C.3     1  UNL1        0.1340
     26 C         139.2810  138.8405  162.6444 C.ar    1  UNL1        0.0359
     27 C         138.6229  140.0616  163.2153 C.ar    1  UNL1        0.0030
     28 C         138.2116  140.0870  164.6576 C.ar    1  UNL1        0.0039
     29 C         138.4584  138.8913  165.5291 C.ar    1  UNL1        0.0714
     30 C         139.1165  137.6703  164.9582 C.ar    1  UNL1        0.0039
     31 C         139.5278  137.6449  163.5159 C.ar    1  UNL1        0.0030
     32 C         138.0471  138.9167  166.9713 C.3     1  UNL1        0.4186
     33 F         137.6358  138.9421  168.4136 F       1  UNL1       -0.1659
     34 F         138.8942  140.1348  167.1915 F       1  UNL1       -0.1659
     35 F         137.1999  137.6986  166.7512 F       1  UNL1       -0.1659
@<TRIPOS>BOND
     1     4     5    1
     2     5     6   ar
     3     6     7   ar
     4     7     8   ar
     5     8     9   ar
     6     9    10   ar
     7    10    11   ar
     8    11    12   ar
     9    12    13   ar
    10    10    14    1
    11    14    15    1
    12    15    16    1
    13    16     3    1
    14     3     2    1
    15     2     1    1
    16     1    19    1
    17    19    20    1
    18    20    21   ar
    19    21    22   ar
    20    22    23   ar
    21    23    26    1
    22    26    27   ar
    23    27    28   ar
    24    28    29   ar
    25    29    32    1
    26    32    33    1
    27    32    34    1
    28    32    35    1
    29    29    30   ar
    30    30    31   ar
    31    23    24   ar
    32    24    25    1
    33    16    17    1
    34    17    18    1
    35    13     5   ar
    36    24    20   ar
    37    12     7   ar
    38    31    26   ar
    39    18     9    1
@<TRIPOS>MOLECULE
*****
 35 39 0 0 0
SMALL
GASTEIGER

@<TRIPOS>ATOM
      1 C         143.2875  143.1350  158.5552 C.3     1  UNL1        0.0666
      2 C         144.3118  142.2596  159.2144 C.3     1  UNL1        0.0294
      3 C         144.8934  142.6530  160.5400 C.3     1  UNL1        0.0730
      4 C         139.2717  140.5066  169.9770 C.3     1  UNL1        0.0950
      5 C         140.0252  140.7943  168.7123 C.ar    1  UNL1        0.2062
      6 N         140.8252  139.8047  167.9181 N.ar    1  UNL1       -0.2121
      7 C         141.4053  140.5209  166.7347 C.ar    1  UNL1        0.1182
      8 C         142.2785  140.0539  165.6079 C.ar    1  UNL1        0.0178
      9 C         142.7103  141.0191  164.5440 C.ar    1  UNL1       -0.0230
     10 C         142.2688  142.4512  164.6068 C.ar    1  UNL1       -0.0216
     11 C         141.3956  142.9183  165.7334 C.ar    1  UNL1        0.0346
     12 C         140.9638  141.9531  166.7974 C.ar    1  UNL1        0.1640
     13 O         140.1108  142.1220  168.0196 O.2     1  UNL1       -0.4384
     14 C         142.5825  143.5691  163.6570 C.3     1  UNL1        0.0434
     15 C         143.4154  143.5309  162.4100 C.3     1  UNL1        0.0768
     16 N         144.1400  142.3654  161.8048 N.3     1  UNL1       -0.2720
     17 C         144.2109  140.9502  162.2970 C.3     1  UNL1        0.0768
     18 C         143.5746  140.3510  163.5161 C.3     1  UNL1        0.0434
     19 S         141.8537  142.6984  158.4967 S.3     1  UNL1       -0.0756
     20 C         141.0437  142.6127  159.7563 C.ar    1  UNL1        0.1932
     21 N         140.3125  143.7458  160.4130 N.ar    1  UNL1       -0.1221
     22 N         139.6396  143.2124  161.6429 N.ar    1  UNL1       -0.1282
     23 C         139.9551  141.7495  161.7463 C.ar    1  UNL1        0.1668
     24 N         140.8229  141.3789  160.5803 N.ar    1  UNL1       -0.2884
     25 C         141.3732  140.0142  160.2894 C.3     1  UNL1        0.1340
     26 C         139.4852  140.8204  162.8261 C.ar    1  UNL1        0.0359
     27 C         139.8934  139.3772  162.8038 C.ar    1  UNL1        0.0030
     28 C         139.4235  138.4481  163.8836 C.ar    1  UNL1        0.0039
     29 C         138.5455  138.9621  164.9857 C.ar    1  UNL1        0.0714
     30 C         138.1373  140.4053  165.0080 C.ar    1  UNL1        0.0039
     31 C         138.6072  141.3344  163.9282 C.ar    1  UNL1        0.0030
     32 C         138.0757  138.0330  166.0655 C.3     1  UNL1        0.4186
     33 F         137.6058  137.1039  167.1453 F       1  UNL1       -0.1659
     34 F         138.6318  136.8666  165.3039 F       1  UNL1       -0.1659
     35 F         137.5195  139.1994  166.8271 F       1  UNL1       -0.1659
@<TRIPOS>BOND
     1     4     5    1
     2     5     6   ar
     3     6     7   ar
     4     7     8   ar
     5     8     9   ar
     6     9    10   ar
     7    10    11   ar
     8    11    12   ar
     9    12    13   ar
    10    10    14    1
    11    14    15    1
    12    15    16    1
    13    16     3    1
    14     3     2    1
    15     2     1    1
    16     1    19    1
    17    19    20    1
    18    20    21   ar
    19    21    22   ar
    20    22    23   ar
    21    23    26    1
    22    26    27   ar
    23    27    28   ar
    24    28    29   ar
    25    29    32    1
    26    32    33    1
    27    32    34    1
    28    32    35    1
    29    29    30   ar
    30    30    31   ar
    31    23    24   ar
    32    24    25    1
    33    16    17    1
    34    17    18    1
    35    13     5   ar
    36    24    20   ar
    37    12     7   ar
    38    31    26   ar
    39    18     9    1
@<TRIPOS>MOLECULE
*****
 35 39 0 0 0
SMALL
GASTEIGER

@<TRIPOS>ATOM
      1 C         140.8723  143.8269  158.6214 C.3     1  UNL1        0.0666
      2 C         140.0121  144.5814  159.5914 C.3     1  UNL1        0.0294
      3 C         140.6450  145.3669  160.7016 C.3     1  UNL1        0.0730
      4 C         141.9417  140.7293  170.8050 C.3     1  UNL1        0.0950
      5 C         141.7679  141.3509  169.4510 C.ar    1  UNL1        0.2062
      6 N         140.5364  142.0466  168.9516 N.ar    1  UNL1       -0.2121
      7 C         140.8025  142.5115  167.5506 C.ar    1  UNL1        0.1182
      8 C         139.9540  143.2539  166.5612 C.ar    1  UNL1        0.0178
      9 C         140.5015  143.5880  165.2052 C.ar    1  UNL1       -0.0230
     10 C         141.8974  143.1797  164.8387 C.ar    1  UNL1       -0.0216
     11 C         142.7460  142.4372  165.8279 C.ar    1  UNL1        0.0346
     12 C         142.1985  142.1031  167.1839 C.ar    1  UNL1        0.1640
     13 O         142.7952  141.3858  168.3585 O.2     1  UNL1       -0.4384
     14 C         142.6320  143.4110  163.5514 C.3     1  UNL1        0.0434
     15 C         142.1519  144.1078  162.3128 C.3     1  UNL1        0.0768
     16 N         140.8188  144.7454  162.0557 N.3     1  UNL1       -0.2720
     17 C         139.6364  144.8436  162.9735 C.3     1  UNL1        0.0768
     18 C         139.4952  144.3286  164.3752 C.3     1  UNL1        0.0434
     19 S         140.8384  142.3275  158.5979 S.3     1  UNL1       -0.0756
     20 C         141.0330  141.5529  159.8676 C.ar    1  UNL1        0.1932
     21 N         142.3464  141.0920  160.4267 N.ar    1  UNL1       -0.1221
     22 N         142.0736  140.3574  161.7057 N.ar    1  UNL1       -0.1282
     23 C         140.5916  140.3644  161.9372 C.ar    1  UNL1        0.1668
     24 N         139.9484  141.1033  160.8011 N.ar    1  UNL1       -0.2884
     25 C         138.4788  141.3492  160.6289 C.3     1  UNL1        0.1340
     26 C         139.8779  139.7418  163.1004 C.ar    1  UNL1        0.0359
     27 C         139.0848  140.6004  164.0405 C.ar    1  UNL1        0.0030
     28 C         138.3712  139.9778  165.2037 C.ar    1  UNL1        0.0039
     29 C         138.4506  138.4967  165.4269 C.ar    1  UNL1        0.0714
     30 C         139.2438  137.6381  164.4868 C.ar    1  UNL1        0.0039
     31 C         139.9574  138.2607  163.3236 C.ar    1  UNL1        0.0030
     32 C         137.7370  137.8741  166.5901 C.3     1  UNL1        0.4186
     33 F         137.0234  137.2515  167.7534 F       1  UNL1       -0.1659
     34 F         137.9409  136.5155  165.9881 F       1  UNL1       -0.1659
     35 F         137.5331  139.2328  167.1922 F       1  UNL1       -0.1659
@<TRIPOS>BOND
     1     4     5    1
     2     5     6   ar
     3     6     7   ar
     4     7     8   ar
     5     8     9   ar
     6     9    10   ar
     7    10    11   ar
     8    11    12   ar
     9    12    13   ar
    10    10    14    1
    11    14    15    1
    12    15    16    1
    13    16     3    1
    14     3     2    1
    15     2     1    1
    16     1    19    1
    17    19    20    1
    18    20    21   ar
    19    21    22   ar
    20    22    23   ar
    21    23    26    1
    22    26    27   ar
    23    27    28   ar
    24    28    29   ar
    25    29    32    1
    26    32    33    1
    27    32    34    1
    28    32    35    1
    29    29    30   ar
    30    30    31   ar
    31    23    24   ar
    32    24    25    1
    33    16    17    1
    34    17    18    1
    35    13     5   ar
    36    24    20   ar
    37    12     7   ar
    38    31    26   ar
    39    18     9    1
@<TRIPOS>MOLECULE
*****
 35 39 0 0 0
SMALL
GASTEIGER

@<TRIPOS>ATOM
      1 C         142.8374  137.9990  158.8633 C.3     1  UNL1        0.0666
      2 C         143.6075  138.5463  160.0284 C.3     1  UNL1        0.0294
      3 C         143.6369  137.7961  161.3271 C.3     1  UNL1        0.0730
      4 C         139.9117  142.6676  170.6898 C.3     1  UNL1        0.0950
      5 C         140.4110  142.0148  169.4350 C.ar    1  UNL1        0.2062
      6 N         141.6654  142.3720  168.6942 N.ar    1  UNL1       -0.2121
      7 C         141.7731  141.4681  167.5021 C.ar    1  UNL1        0.1182
      8 C         142.7994  141.3606  166.4134 C.ar    1  UNL1        0.0178
      9 C         142.6378  140.3372  165.3287 C.ar    1  UNL1       -0.0230
     10 C         141.4501  139.4213  165.3327 C.ar    1  UNL1       -0.0216
     11 C         140.4238  139.5286  166.4213 C.ar    1  UNL1        0.0346
     12 C         140.5853  140.5521  167.5060 C.ar    1  UNL1        0.1640
     13 O         139.7434  140.8900  168.7007 O.2     1  UNL1       -0.4384
     14 C         141.0997  138.3397  164.3541 C.3     1  UNL1        0.0434
     15 C         141.8509  137.9070  163.1299 C.3     1  UNL1        0.0768
     16 N         143.1376  138.4490  162.5819 N.3     1  UNL1       -0.2720
     17 C         143.9912  139.5576  163.1227 C.3     1  UNL1        0.0768
     18 C         143.7688  140.3979  164.3452 C.3     1  UNL1        0.0434
     19 S         141.4519  138.4983  158.5790 S.3     1  UNL1       -0.0756
     20 C         140.5617  138.9244  159.7085 C.ar    1  UNL1        0.1932
     21 N         139.4518  138.1144  160.3102 N.ar    1  UNL1       -0.1221
     22 N         138.8292  138.9247  161.4083 N.ar    1  UNL1       -0.1282
     23 C         139.5544  140.2355  161.4853 C.ar    1  UNL1        0.1668
     24 N         140.6251  140.2353  160.4348 N.ar    1  UNL1       -0.2884
     25 C         141.5899  141.3503  160.1590 C.3     1  UNL1        0.1340
     26 C         139.2604  141.3507  162.4444 C.ar    1  UNL1        0.0359
     27 C         140.3371  141.8584  163.3571 C.ar    1  UNL1        0.0030
     28 C         140.0431  142.9736  164.3162 C.ar    1  UNL1        0.0039
     29 C         138.6725  143.5811  164.3627 C.ar    1  UNL1        0.0714
     30 C         137.5958  143.0734  163.4500 C.ar    1  UNL1        0.0039
     31 C         137.8898  141.9582  162.4909 C.ar    1  UNL1        0.0030
     32 C         138.3786  144.6963  165.3218 C.3     1  UNL1        0.4186
     33 F         138.0846  145.8115  166.2809 F       1  UNL1       -0.1659
     34 F         139.8288  145.0795  165.3207 F       1  UNL1       -0.1659
     35 F         136.9283  144.3131  165.3229 F       1  UNL1       -0.1659
@<TRIPOS>BOND
     1     4     5    1
     2     5     6   ar
     3     6     7   ar
     4     7     8   ar
     5     8     9   ar
     6     9    10   ar
     7    10    11   ar
     8    11    12   ar
     9    12    13   ar
    10    10    14    1
    11    14    15    1
    12    15    16    1
    13    16     3    1
    14     3     2    1
    15     2     1    1
    16     1    19    1
    17    19    20    1
    18    20    21   ar
    19    21    22   ar
    20    22    23   ar
    21    23    26    1
    22    26    27   ar
    23    27    28   ar
    24    28    29   ar
    25    29    32    1
    26    32    33    1
    27    32    34    1
    28    32    35    1
    29    29    30   ar
    30    30    31   ar
    31    23    24   ar
    32    24    25    1
    33    16    17    1
    34    17    18    1
    35    13     5   ar
    36    24    20   ar
    37    12     7   ar
    38    31    26   ar
    39    18     9    1
