@<TRIPOS>MOLECULE
*****
 34 37 0 0 0
SMALL
GASTEIGER

@<TRIPOS>ATOM
      1 N         138.3472  138.7833  167.4348 N.pl3   1  UNL1       -0.3414
      2 C         138.9332  138.7288  166.0551 C.ar    1  UNL1        0.1432
      3 N         138.2835  137.8873  164.9969 N.ar    1  UNL1       -0.2265
      4 C         138.8696  137.8328  163.6173 C.ar    1  UNL1        0.1193
      5 C         140.1054  138.6198  163.2957 C.ar    1  UNL1        0.1005
      6 N         140.7551  139.4613  164.3539 N.ar    1  UNL1       -0.2410
      7 C         140.1690  139.5158  165.7336 C.ar    1  UNL1        0.1123
      8 H         137.5360  138.2668  167.6458 H       1  UNL1        0.1438
      9 H         138.7736  139.3356  168.1293 H       1  UNL1        0.1438
     10 C         140.6915  138.5653  161.9160 C.ar    1  UNL1        0.0192
     11 C         142.1783  138.6320  161.7296 C.ar    1  UNL1        0.0017
     12 C         142.7644  138.5776  160.3499 C.ar    1  UNL1        0.0046
     13 C         141.8636  138.4564  159.1567 C.ar    1  UNL1        0.0536
     14 C         140.3768  138.3896  159.3431 C.ar    1  UNL1        0.0046
     15 C         139.7907  138.4441  160.7228 C.ar    1  UNL1        0.0017
     16 C         142.4497  138.4019  157.7770 C.2     1  UNL1        0.2491
     17 O         142.5037  139.6424  156.9355 O.2     1  UNL1       -0.2699
     18 N         142.9818  137.1068  157.2388 N.am    1  UNL1       -0.2732
     19 C         142.9279  135.8662  158.0802 C.3     1  UNL1        0.1108
     20 C         143.4600  134.5712  157.5420 C.3     1  UNL1        0.0904
     21 N         144.0461  134.5167  156.1623 N.3     1  UNL1       -0.2946
     22 C         144.1000  135.7572  155.3209 C.3     1  UNL1        0.0904
     23 C         143.5679  137.0524  155.8591 C.3     1  UNL1        0.1108
     24 H         143.5038  133.8293  155.6390 H       1  UNL1        0.1233
     25 C         140.8188  140.3573  166.7918 C.ar    1  UNL1        0.0204
     26 C         141.9450  139.7970  167.6090 C.ar    1  UNL1        0.0015
     27 C         142.5948  140.6384  168.6671 C.ar    1  UNL1        0.0039
     28 C         142.1184  142.0402  168.9081 C.ar    1  UNL1        0.0714
     29 C         140.9922  142.6006  168.0909 C.ar    1  UNL1        0.0039
     30 C         140.3425  141.7590  167.0327 C.ar    1  UNL1        0.0015
     31 C         142.7682  142.8817  169.9662 C.3     1  UNL1        0.4186
     32 F         143.4180  143.7231  171.0244 F       1  UNL1       -0.1659
     33 F         141.5766  143.7928  169.9735 F       1  UNL1       -0.1659
     34 F         143.9598  141.9706  169.9590 F       1  UNL1       -0.1659
@<TRIPOS>BOND
     1     1     2    1
     2     2     3   ar
     3     3     4   ar
     4     4     5   ar
     5     5    10    1
     6    10    11   ar
     7    11    12   ar
     8    12    13   ar
     9    13    16    1
    10    16    17    2
    11    16    18   am
    12    18    19    1
    13    19    20    1
    14    20    21    1
    15    21    22    1
    16    22    23    1
    17    13    14   ar
    18    14    15   ar
    19     5     6   ar
    20     6     7   ar
    21     7    25    1
    22    25    26   ar
    23    26    27   ar
    24    27    28   ar
    25    28    31    1
    26    31    32    1
    27    31    33    1
    28    31    34    1
    29    28    29   ar
    30    29    30   ar
    31     7     2   ar
    32    30    25   ar
    33    15    10   ar
    34    23    18    1
    35     1     8    1
    36     1     9    1
    37    21    24    1
@<TRIPOS>MOLECULE
*****
 34 37 0 0 0
SMALL
GASTEIGER

@<TRIPOS>ATOM
      1 N         138.3882  138.8248  167.3915 N.pl3   1  UNL1       -0.3414
      2 C         139.0030  138.7421  166.0258 C.ar    1  UNL1        0.1432
      3 N         138.3668  137.8908  164.9672 N.ar    1  UNL1       -0.2265
      4 C         138.9816  137.8081  163.6015 C.ar    1  UNL1        0.1193
      5 C         140.2326  138.5766  163.2943 C.ar    1  UNL1        0.1005
      6 N         140.8687  139.4279  164.3529 N.ar    1  UNL1       -0.2410
      7 C         140.2539  139.5106  165.7186 C.ar    1  UNL1        0.1123
      8 H         137.5671  138.3203  167.5931 H       1  UNL1        0.1438
      9 H         138.8057  139.3835  168.0863 H       1  UNL1        0.1438
     10 C         140.8474  138.4939  161.9286 C.ar    1  UNL1        0.0192
     11 C         142.2089  137.8891  161.7544 C.ar    1  UNL1        0.0017
     12 C         142.8237  137.8064  160.3887 C.ar    1  UNL1        0.0046
     13 C         142.0770  138.3285  159.1972 C.ar    1  UNL1        0.0536
     14 C         140.7155  138.9334  159.3714 C.ar    1  UNL1        0.0046
     15 C         140.1007  139.0161  160.7371 C.ar    1  UNL1        0.0017
     16 C         142.6918  138.2458  157.8315 C.2     1  UNL1        0.2491
     17 O         142.4284  137.0527  156.9614 O.2     1  UNL1       -0.2699
     18 N         143.5700  139.3562  157.3359 N.am    1  UNL1       -0.2732
     19 C         143.8335  140.5494  158.2059 C.3     1  UNL1        0.1108
     20 C         144.7118  141.6598  157.7103 C.3     1  UNL1        0.0904
     21 N         145.3266  141.5770  156.3446 N.3     1  UNL1       -0.2946
     22 C         145.0631  140.3839  155.4745 C.3     1  UNL1        0.0904
     23 C         144.1849  139.2735  155.9701 C.3     1  UNL1        0.1108
     24 H         146.3370  141.6306  156.4728 H       1  UNL1        0.1233
     25 C         140.8901  140.3620  166.7772 C.ar    1  UNL1        0.0204
     26 C         140.3899  141.7551  167.0202 C.ar    1  UNL1        0.0015
     27 C         141.0261  142.6064  168.0787 C.ar    1  UNL1        0.0039
     28 C         142.1625  142.0647  168.8943 C.ar    1  UNL1        0.0714
     29 C         142.6627  140.6715  168.6513 C.ar    1  UNL1        0.0039
     30 C         142.0265  139.8202  167.5927 C.ar    1  UNL1        0.0015
     31 C         142.7986  142.9160  169.9528 C.3     1  UNL1        0.4186
     32 F         143.4348  143.7673  171.0113 F       1  UNL1       -0.1659
     33 F         141.5818  143.7927  169.9790 F       1  UNL1       -0.1659
     34 F         144.0154  142.0393  169.9266 F       1  UNL1       -0.1659
@<TRIPOS>BOND
     1     1     2    1
     2     2     3   ar
     3     3     4   ar
     4     4     5   ar
     5     5    10    1
     6    10    11   ar
     7    11    12   ar
     8    12    13   ar
     9    13    16    1
    10    16    17    2
    11    16    18   am
    12    18    19    1
    13    19    20    1
    14    20    21    1
    15    21    22    1
    16    22    23    1
    17    13    14   ar
    18    14    15   ar
    19     5     6   ar
    20     6     7   ar
    21     7    25    1
    22    25    26   ar
    23    26    27   ar
    24    27    28   ar
    25    28    31    1
    26    31    32    1
    27    31    33    1
    28    31    34    1
    29    28    29   ar
    30    29    30   ar
    31     7     2   ar
    32    30    25   ar
    33    15    10   ar
    34    23    18    1
    35     1     8    1
    36     1     9    1
    37    21    24    1
@<TRIPOS>MOLECULE
*****
 34 37 0 0 0
SMALL
GASTEIGER

@<TRIPOS>ATOM
      1 N         141.1032  136.7073  164.4089 N.pl3   1  UNL1       -0.3414
      2 C         141.1398  137.8899  163.4868 C.ar    1  UNL1        0.1432
      3 N         141.2774  137.6834  162.0075 N.ar    1  UNL1       -0.2265
      4 C         141.3141  138.8659  161.0854 C.ar    1  UNL1        0.1193
      5 C         141.2132  140.2549  161.6426 C.ar    1  UNL1        0.1005
      6 N         141.0756  140.4614  163.1219 N.ar    1  UNL1       -0.2410
      7 C         141.0390  139.2788  164.0440 C.ar    1  UNL1        0.1123
      8 H         141.1694  135.7957  164.0432 H       1  UNL1        0.1438
      9 H         141.0129  136.8428  165.3799 H       1  UNL1        0.1438
     10 C         141.2499  141.4374  160.7205 C.ar    1  UNL1        0.0192
     11 C         140.4968  142.6862  161.0719 C.ar    1  UNL1        0.0017
     12 C         140.5335  143.8687  160.1498 C.ar    1  UNL1        0.0046
     13 C         141.3232  143.8025  158.8763 C.ar    1  UNL1        0.0536
     14 C         142.0763  142.5538  158.5249 C.ar    1  UNL1        0.0046
     15 C         142.0396  141.3712  159.4470 C.ar    1  UNL1        0.0017
     16 C         141.3599  144.9850  157.9542 C.2     1  UNL1        0.2491
     17 O         142.4283  146.0260  158.1116 O.2     1  UNL1       -0.2699
     18 N         140.3281  145.1266  156.8747 N.am    1  UNL1       -0.2732
     19 C         139.2596  144.0856  156.7173 C.3     1  UNL1        0.1108
     20 C         138.2279  144.2272  155.6377 C.3     1  UNL1        0.0904
     21 N         138.2645  145.4097  154.7156 N.3     1  UNL1       -0.2946
     22 C         139.3330  146.4507  154.8730 C.3     1  UNL1        0.0904
     23 C         140.3648  146.3091  155.9526 C.3     1  UNL1        0.1108
     24 H         137.3696  145.8889  154.8155 H       1  UNL1        0.1233
     25 C         140.9014  139.4853  165.5234 C.ar    1  UNL1        0.0204
     26 C         142.1214  139.4942  166.3961 C.ar    1  UNL1        0.0015
     27 C         141.9839  139.7006  167.8754 C.ar    1  UNL1        0.0039
     28 C         140.6263  139.8983  168.4821 C.ar    1  UNL1        0.0714
     29 C         139.4063  139.8895  167.6095 C.ar    1  UNL1        0.0039
     30 C         139.5439  139.6830  166.1301 C.ar    1  UNL1        0.0015
     31 C         140.4888  140.1048  169.9614 C.3     1  UNL1        0.4186
     32 F         140.3513  140.3113  171.4407 F       1  UNL1       -0.1659
     33 F         139.3694  141.0740  169.7221 F       1  UNL1       -0.1659
     34 F         141.6083  139.1356  170.2008 F       1  UNL1       -0.1659
@<TRIPOS>BOND
     1     1     2    1
     2     2     3   ar
     3     3     4   ar
     4     4     5   ar
     5     5    10    1
     6    10    11   ar
     7    11    12   ar
     8    12    13   ar
     9    13    16    1
    10    16    17    2
    11    16    18   am
    12    18    19    1
    13    19    20    1
    14    20    21    1
    15    21    22    1
    16    22    23    1
    17    13    14   ar
    18    14    15   ar
    19     5     6   ar
    20     6     7   ar
    21     7    25    1
    22    25    26   ar
    23    26    27   ar
    24    27    28   ar
    25    28    31    1
    26    31    32    1
    27    31    33    1
    28    31    34    1
    29    28    29   ar
    30    29    30   ar
    31     7     2   ar
    32    30    25   ar
    33    15    10   ar
    34    23    18    1
    35     1     8    1
    36     1     9    1
    37    21    24    1
@<TRIPOS>MOLECULE
*****
 34 37 0 0 0
SMALL
GASTEIGER

@<TRIPOS>ATOM
      1 N         138.8568  137.5091  165.1431 N.pl3   1  UNL1       -0.3414
      2 C         139.1856  138.5754  164.1408 C.ar    1  UNL1        0.1432
      3 N         138.5199  138.5723  162.7966 N.ar    1  UNL1       -0.2265
      4 C         138.8487  139.6386  161.7942 C.ar    1  UNL1        0.1193
      5 C         139.8434  140.7081  162.1360 C.ar    1  UNL1        0.1005
      6 N         140.5092  140.7112  163.4801 N.ar    1  UNL1       -0.2410
      7 C         140.1803  139.6449  164.4825 C.ar    1  UNL1        0.1123
      8 H         138.2039  136.8072  164.9188 H       1  UNL1        0.1438
      9 H         139.2938  137.5112  166.0253 H       1  UNL1        0.1438
     10 C         140.1723  141.7744  161.1336 C.ar    1  UNL1        0.0192
     11 C         140.9616  141.4312  159.9051 C.ar    1  UNL1        0.0017
     12 C         141.2904  142.4975  158.9027 C.ar    1  UNL1        0.0046
     13 C         140.8300  143.9071  159.1288 C.ar    1  UNL1        0.0536
     14 C         140.0407  144.2503  160.3572 C.ar    1  UNL1        0.0046
     15 C         139.7118  143.1839  161.3596 C.ar    1  UNL1        0.0017
     16 C         141.1589  144.9734  158.1264 C.2     1  UNL1        0.2491
     17 O         142.3357  145.8760  158.3504 O.2     1  UNL1       -0.2699
     18 N         140.3109  145.1371  156.9000 N.am    1  UNL1       -0.2732
     19 C         139.1340  144.2344  156.6759 C.3     1  UNL1        0.1108
     20 C         138.2860  144.3981  155.4495 C.3     1  UNL1        0.0904
     21 N         138.6149  145.4644  154.4471 N.3     1  UNL1       -0.2946
     22 C         139.7917  146.3670  154.6711 C.3     1  UNL1        0.0904
     23 C         140.6398  146.2034  155.8976 C.3     1  UNL1        0.1108
     24 H         137.7931  146.0644  154.3751 H       1  UNL1        0.1233
     25 C         140.8461  139.6481  165.8266 C.ar    1  UNL1        0.0204
     26 C         142.2248  139.0779  165.9820 C.ar    1  UNL1        0.0015
     27 C         142.8906  139.0811  167.3261 C.ar    1  UNL1        0.0039
     28 C         142.1778  139.6545  168.5149 C.ar    1  UNL1        0.0714
     29 C         140.7991  140.2247  168.3595 C.ar    1  UNL1        0.0039
     30 C         140.1333  140.2215  167.0153 C.ar    1  UNL1        0.0015
     31 C         142.8436  139.6577  169.8590 C.3     1  UNL1        0.4186
     32 F         143.5095  139.6609  171.2031 F       1  UNL1       -0.1659
     33 F         143.4205  141.0118  169.5700 F       1  UNL1       -0.1659
     34 F         142.2668  138.3036  170.1480 F       1  UNL1       -0.1659
@<TRIPOS>BOND
     1     1     2    1
     2     2     3   ar
     3     3     4   ar
     4     4     5   ar
     5     5    10    1
     6    10    11   ar
     7    11    12   ar
     8    12    13   ar
     9    13    16    1
    10    16    17    2
    11    16    18   am
    12    18    19    1
    13    19    20    1
    14    20    21    1
    15    21    22    1
    16    22    23    1
    17    13    14   ar
    18    14    15   ar
    19     5     6   ar
    20     6     7   ar
    21     7    25    1
    22    25    26   ar
    23    26    27   ar
    24    27    28   ar
    25    28    31    1
    26    31    32    1
    27    31    33    1
    28    31    34    1
    29    28    29   ar
    30    29    30   ar
    31     7     2   ar
    32    30    25   ar
    33    15    10   ar
    34    23    18    1
    35     1     8    1
    36     1     9    1
    37    21    24    1
@<TRIPOS>MOLECULE
*****
 34 37 0 0 0
SMALL
GASTEIGER

@<TRIPOS>ATOM
      1 N         143.7611  144.9415  164.1558 N.pl3   1  UNL1       -0.3414
      2 C         143.3098  143.9260  163.1483 C.ar    1  UNL1        0.1432
      3 N         143.8149  143.9931  161.7376 N.ar    1  UNL1       -0.2265
      4 C         143.3636  142.9776  160.7302 C.ar    1  UNL1        0.1193
      5 C         142.4071  141.8948  161.1335 C.ar    1  UNL1        0.1005
      6 N         141.9019  141.8276  162.5442 N.ar    1  UNL1       -0.2410
      7 C         142.3533  142.8432  163.5516 C.ar    1  UNL1        0.1123
      8 H         144.3889  145.6522  163.8910 H       1  UNL1        0.1438
      9 H         143.4295  144.8974  165.0817 H       1  UNL1        0.1438
     10 C         141.9558  140.8793  160.1260 C.ar    1  UNL1        0.0192
     11 C         141.7963  139.4431  160.5285 C.ar    1  UNL1        0.0017
     12 C         141.3450  138.4276  159.5211 C.ar    1  UNL1        0.0046
     13 C         141.0531  138.8481  158.1112 C.ar    1  UNL1        0.0536
     14 C         141.2125  140.2843  157.7087 C.ar    1  UNL1        0.0046
     15 C         141.6638  141.2999  158.7161 C.ar    1  UNL1        0.0017
     16 C         140.6017  137.8326  157.1037 C.2     1  UNL1        0.2491
     17 O         139.1378  137.5765  156.9010 O.2     1  UNL1       -0.2699
     18 N         141.6144  137.0731  156.2990 N.am    1  UNL1       -0.2732
     19 C         143.0785  137.3291  156.5016 C.3     1  UNL1        0.1108
     20 C         144.0911  136.5697  155.6969 C.3     1  UNL1        0.0904
     21 N         143.6398  135.5541  154.6894 N.3     1  UNL1       -0.2946
     22 C         142.1758  135.2980  154.4868 C.3     1  UNL1        0.0904
     23 C         141.1630  136.0575  155.2915 C.3     1  UNL1        0.1108
     24 H         144.0596  134.6646  154.9596 H       1  UNL1        0.1233
     25 C         141.8480  142.7760  164.9625 C.ar    1  UNL1        0.0204
     26 C         140.4833  143.3015  165.2962 C.ar    1  UNL1        0.0015
     27 C         139.9781  143.2343  166.7069 C.ar    1  UNL1        0.0039
     28 C         140.8376  142.6416  167.7840 C.ar    1  UNL1        0.0714
     29 C         142.2023  142.1160  167.4502 C.ar    1  UNL1        0.0039
     30 C         142.7075  142.1833  166.0394 C.ar    1  UNL1        0.0015
     31 C         140.3324  142.5744  169.1947 C.3     1  UNL1        0.4186
     32 F         139.8271  142.5071  170.6054 F       1  UNL1       -0.1659
     33 F         140.3872  141.0763  169.1430 F       1  UNL1       -0.1659
     34 F         140.2775  144.0724  169.2464 F       1  UNL1       -0.1659
@<TRIPOS>BOND
     1     1     2    1
     2     2     3   ar
     3     3     4   ar
     4     4     5   ar
     5     5    10    1
     6    10    11   ar
     7    11    12   ar
     8    12    13   ar
     9    13    16    1
    10    16    17    2
    11    16    18   am
    12    18    19    1
    13    19    20    1
    14    20    21    1
    15    21    22    1
    16    22    23    1
    17    13    14   ar
    18    14    15   ar
    19     5     6   ar
    20     6     7   ar
    21     7    25    1
    22    25    26   ar
    23    26    27   ar
    24    27    28   ar
    25    28    31    1
    26    31    32    1
    27    31    33    1
    28    31    34    1
    29    28    29   ar
    30    29    30   ar
    31     7     2   ar
    32    30    25   ar
    33    15    10   ar
    34    23    18    1
    35     1     8    1
    36     1     9    1
    37    21    24    1
@<TRIPOS>MOLECULE
*****
 34 37 0 0 0
SMALL
GASTEIGER

@<TRIPOS>ATOM
      1 N         144.7363  136.6675  155.0142 N.pl3   1  UNL1       -0.3414
      2 C         143.8579  137.3827  155.9974 C.ar    1  UNL1        0.1432
      3 N         144.0578  138.8467  156.2553 N.ar    1  UNL1       -0.2265
      4 C         143.1794  139.5620  157.2385 C.ar    1  UNL1        0.1193
      5 C         142.1010  138.8131  157.9639 C.ar    1  UNL1        0.1005
      6 N         141.9011  137.3491  157.7061 N.ar    1  UNL1       -0.2410
      7 C         142.7795  136.6339  156.7228 C.ar    1  UNL1        0.1123
      8 H         145.4441  137.1590  154.5380 H       1  UNL1        0.1438
      9 H         144.6051  135.7066  154.8449 H       1  UNL1        0.1438
     10 C         141.2225  139.5283  158.9472 C.ar    1  UNL1        0.0192
     11 C         141.2176  139.1135  160.3887 C.ar    1  UNL1        0.0017
     12 C         140.3392  139.8288  161.3719 C.ar    1  UNL1        0.0046
     13 C         139.4656  140.9587  160.9137 C.ar    1  UNL1        0.0536
     14 C         139.4706  141.3735  159.4723 C.ar    1  UNL1        0.0046
     15 C         140.3490  140.6583  158.4890 C.ar    1  UNL1        0.0017
     16 C         138.5872  141.6739  161.8970 C.2     1  UNL1        0.2491
     17 O         137.1783  141.2101  162.1198 O.2     1  UNL1       -0.2699
     18 N         139.1177  142.8530  162.6574 N.am    1  UNL1       -0.2732
     19 C         140.5267  143.3170  162.4346 C.3     1  UNL1        0.1108
     20 C         141.0572  144.4960  163.1951 C.3     1  UNL1        0.0904
     21 N         140.1787  145.2112  164.1783 N.3     1  UNL1       -0.2946
     22 C         138.7698  144.7474  164.4011 C.3     1  UNL1        0.0904
     23 C         138.2392  143.5682  163.6407 C.3     1  UNL1        0.1108
     24 H         140.1239  146.1826  163.8720 H       1  UNL1        0.1233
     25 C         142.5795  135.1697  156.4650 C.ar    1  UNL1        0.0204
     26 C         141.6103  134.7190  155.4127 C.ar    1  UNL1        0.0015
     27 C         141.4103  133.2550  155.1548 C.ar    1  UNL1        0.0039
     28 C         142.1796  132.2415  155.9494 C.ar    1  UNL1        0.0714
     29 C         143.1488  132.6922  157.0017 C.ar    1  UNL1        0.0039
     30 C         143.3488  134.1564  157.2595 C.ar    1  UNL1        0.0015
     31 C         141.9796  130.7775  155.6915 C.3     1  UNL1        0.4186
     32 F         141.7796  129.3134  155.4337 F       1  UNL1       -0.1659
     33 F         141.0072  131.1031  154.5969 F       1  UNL1       -0.1659
     34 F         142.9520  130.4519  156.7862 F       1  UNL1       -0.1659
@<TRIPOS>BOND
     1     1     2    1
     2     2     3   ar
     3     3     4   ar
     4     4     5   ar
     5     5    10    1
     6    10    11   ar
     7    11    12   ar
     8    12    13   ar
     9    13    16    1
    10    16    17    2
    11    16    18   am
    12    18    19    1
    13    19    20    1
    14    20    21    1
    15    21    22    1
    16    22    23    1
    17    13    14   ar
    18    14    15   ar
    19     5     6   ar
    20     6     7   ar
    21     7    25    1
    22    25    26   ar
    23    26    27   ar
    24    27    28   ar
    25    28    31    1
    26    31    32    1
    27    31    33    1
    28    31    34    1
    29    28    29   ar
    30    29    30   ar
    31     7     2   ar
    32    30    25   ar
    33    15    10   ar
    34    23    18    1
    35     1     8    1
    36     1     9    1
    37    21    24    1
@<TRIPOS>MOLECULE
*****
 34 37 0 0 0
SMALL
GASTEIGER

@<TRIPOS>ATOM
      1 N         138.3046  144.7979  165.4636 N.pl3   1  UNL1       -0.3414
      2 C         139.2390  144.3755  164.3689 C.ar    1  UNL1        0.1432
      3 N         139.2826  145.1445  163.0817 N.ar    1  UNL1       -0.2265
      4 C         140.2170  144.7221  161.9870 C.ar    1  UNL1        0.1193
      5 C         141.1078  143.5308  162.1794 C.ar    1  UNL1        0.1005
      6 N         141.0642  142.7618  163.4665 N.ar    1  UNL1       -0.2410
      7 C         140.1298  143.1842  164.5613 C.ar    1  UNL1        0.1123
      8 H         137.7199  145.5799  165.3373 H       1  UNL1        0.1438
      9 H         138.2760  144.2932  166.3084 H       1  UNL1        0.1438
     10 C         142.0422  143.1084  161.0846 C.ar    1  UNL1        0.0192
     11 C         143.0897  142.0686  161.3522 C.ar    1  UNL1        0.0017
     12 C         144.0241  141.6462  160.2575 C.ar    1  UNL1        0.0046
     13 C         143.9110  142.2636  158.8951 C.ar    1  UNL1        0.0536
     14 C         142.8636  143.3034  158.6275 C.ar    1  UNL1        0.0046
     15 C         141.9292  143.7257  159.7223 C.ar    1  UNL1        0.0017
     16 C         144.8454  141.8412  157.8004 C.2     1  UNL1        0.2491
     17 O         146.1214  142.5956  157.5708 O.2     1  UNL1       -0.2699
     18 N         144.5039  140.6644  156.9352 N.am    1  UNL1       -0.2732
     19 C         143.2278  139.9100  157.1648 C.3     1  UNL1        0.1108
     20 C         142.8863  138.7332  156.2997 C.3     1  UNL1        0.0904
     21 N         143.8207  138.3108  155.2049 N.3     1  UNL1       -0.2946
     22 C         145.0966  139.0652  154.9753 C.3     1  UNL1        0.0904
     23 C         145.4383  140.2420  155.8405 C.3     1  UNL1        0.1108
     24 H         143.2921  138.3542  154.3336 H       1  UNL1        0.1233
     25 C         140.0863  142.4152  165.8484 C.ar    1  UNL1        0.0204
     26 C         140.7046  142.9915  167.0876 C.ar    1  UNL1        0.0015
     27 C         140.6611  142.2225  168.3748 C.ar    1  UNL1        0.0039
     28 C         139.9993  140.8772  168.4228 C.ar    1  UNL1        0.0714
     29 C         139.3810  140.3009  167.1836 C.ar    1  UNL1        0.0039
     30 C         139.4245  141.0700  165.8964 C.ar    1  UNL1        0.0015
     31 C         139.9558  140.1083  169.7099 C.3     1  UNL1        0.4186
     32 F         139.9122  139.3393  170.9971 F       1  UNL1       -0.1659
     33 F         138.6050  140.6873  170.0102 F       1  UNL1       -0.1659
     34 F         141.3065  139.5293  169.4097 F       1  UNL1       -0.1659
@<TRIPOS>BOND
     1     1     2    1
     2     2     3   ar
     3     3     4   ar
     4     4     5   ar
     5     5    10    1
     6    10    11   ar
     7    11    12   ar
     8    12    13   ar
     9    13    16    1
    10    16    17    2
    11    16    18   am
    12    18    19    1
    13    19    20    1
    14    20    21    1
    15    21    22    1
    16    22    23    1
    17    13    14   ar
    18    14    15   ar
    19     5     6   ar
    20     6     7   ar
    21     7    25    1
    22    25    26   ar
    23    26    27   ar
    24    27    28   ar
    25    28    31    1
    26    31    32    1
    27    31    33    1
    28    31    34    1
    29    28    29   ar
    30    29    30   ar
    31     7     2   ar
    32    30    25   ar
    33    15    10   ar
    34    23    18    1
    35     1     8    1
    36     1     9    1
    37    21    24    1
@<TRIPOS>MOLECULE
*****
 34 37 0 0 0
SMALL
GASTEIGER

@<TRIPOS>ATOM
      1 N         143.3176  138.9647  155.5849 N.pl3   1  UNL1       -0.3414
      2 C         143.3007  138.9318  157.0845 C.ar    1  UNL1        0.1432
      3 N         143.7000  140.1483  157.8659 N.ar    1  UNL1       -0.2265
      4 C         143.6830  140.1154  159.3654 C.ar    1  UNL1        0.1193
      5 C         143.2668  138.8661  160.0835 C.ar    1  UNL1        0.1005
      6 N         142.8675  137.6496  159.3021 N.ar    1  UNL1       -0.2410
      7 C         142.8844  137.6825  157.8026 C.ar    1  UNL1        0.1123
      8 H         143.5908  139.7847  155.1136 H       1  UNL1        0.1438
      9 H         143.0556  138.1663  155.0720 H       1  UNL1        0.1438
     10 C         143.2498  138.8332  161.5831 C.ar    1  UNL1        0.0192
     11 C         144.2205  139.6699  162.3626 C.ar    1  UNL1        0.0017
     12 C         144.2035  139.6370  163.8622 C.ar    1  UNL1        0.0046
     13 C         143.2159  138.7674  164.5822 C.ar    1  UNL1        0.0536
     14 C         142.2453  137.9307  163.8026 C.ar    1  UNL1        0.0046
     15 C         142.2622  137.9636  162.3031 C.ar    1  UNL1        0.0017
     16 C         143.1989  138.7345  166.0817 C.2     1  UNL1        0.2491
     17 O         144.1459  137.8381  166.8230 O.2     1  UNL1       -0.2699
     18 N         142.2350  139.5981  166.8400 N.am    1  UNL1       -0.2732
     19 C         141.2879  140.4946  166.0987 C.3     1  UNL1        0.1108
     20 C         140.3240  141.3582  166.8570 C.3     1  UNL1        0.0904
     21 N         140.3070  141.3253  168.3565 N.3     1  UNL1       -0.2946
     22 C         141.2540  140.4288  169.0978 C.3     1  UNL1        0.0904
     23 C         142.2180  139.5652  168.3395 C.3     1  UNL1        0.1108
     24 H         139.3644  141.0520  168.6344 H       1  UNL1        0.1233
     25 C         142.4851  136.4659  157.0212 C.ar    1  UNL1        0.0204
     26 C         141.3063  136.5228  156.0953 C.ar    1  UNL1        0.0015
     27 C         140.9070  135.3063  155.3139 C.ar    1  UNL1        0.0039
     28 C         141.6865  134.0328  155.4583 C.ar    1  UNL1        0.0714
     29 C         142.8653  133.9759  156.3842 C.ar    1  UNL1        0.0039
     30 C         143.2646  135.1925  157.1656 C.ar    1  UNL1        0.0015
     31 C         141.2871  132.8163  154.6769 C.3     1  UNL1        0.4186
     32 F         140.8878  131.5998  153.8955 F       1  UNL1       -0.1659
     33 F         140.8492  133.6906  153.5395 F       1  UNL1       -0.1659
     34 F         141.7251  131.9420  155.8143 F       1  UNL1       -0.1659
@<TRIPOS>BOND
     1     1     2    1
     2     2     3   ar
     3     3     4   ar
     4     4     5   ar
     5     5    10    1
     6    10    11   ar
     7    11    12   ar
     8    12    13   ar
     9    13    16    1
    10    16    17    2
    11    16    18   am
    12    18    19    1
    13    19    20    1
    14    20    21    1
    15    21    22    1
    16    22    23    1
    17    13    14   ar
    18    14    15   ar
    19     5     6   ar
    20     6     7   ar
    21     7    25    1
    22    25    26   ar
    23    26    27   ar
    24    27    28   ar
    25    28    31    1
    26    31    32    1
    27    31    33    1
    28    31    34    1
    29    28    29   ar
    30    29    30   ar
    31     7     2   ar
    32    30    25   ar
    33    15    10   ar
    34    23    18    1
    35     1     8    1
    36     1     9    1
    37    21    24    1
@<TRIPOS>MOLECULE
*****
 34 37 0 0 0
SMALL
GASTEIGER

@<TRIPOS>ATOM
      1 N         144.0042  145.0223  164.4347 N.pl3   1  UNL1       -0.3414
      2 C         143.7883  143.9197  163.4409 C.ar    1  UNL1        0.1432
      3 N         144.4444  143.9852  162.0937 N.ar    1  UNL1       -0.2265
      4 C         144.2285  142.8826  161.0999 C.ar    1  UNL1        0.1193
      5 C         143.3565  141.7144  161.4533 C.ar    1  UNL1        0.1005
      6 N         142.7004  141.6489  162.8006 N.ar    1  UNL1       -0.2410
      7 C         142.9163  142.7515  163.7944 C.ar    1  UNL1        0.1123
      8 H         144.5765  145.7890  164.2027 H       1  UNL1        0.1438
      9 H         143.5736  144.9792  165.3190 H       1  UNL1        0.1438
     10 C         143.1406  140.6118  160.4595 C.ar    1  UNL1        0.0192
     11 C         142.5469  139.3078  160.9033 C.ar    1  UNL1        0.0017
     12 C         142.3310  138.2052  159.9095 C.ar    1  UNL1        0.0046
     13 C         142.7088  138.4066  158.4719 C.ar    1  UNL1        0.0536
     14 C         143.3026  139.7106  158.0282 C.ar    1  UNL1        0.0046
     15 C         143.5185  140.8132  159.0220 C.ar    1  UNL1        0.0017
     16 C         142.4929  137.3040  157.4781 C.2     1  UNL1        0.2491
     17 O         143.4742  136.1732  157.3876 O.2     1  UNL1       -0.2699
     18 N         141.2958  137.3322  156.5749 N.am    1  UNL1       -0.2732
     19 C         140.3144  138.4631  156.6654 C.3     1  UNL1        0.1108
     20 C         139.1172  138.4913  155.7622 C.3     1  UNL1        0.0904
     21 N         138.9013  137.3887  154.7684 N.3     1  UNL1       -0.2946
     22 C         139.8826  136.2579  154.6778 C.3     1  UNL1        0.0904
     23 C         141.0799  136.2296  155.5811 C.3     1  UNL1        0.1108
     24 H         138.8689  137.8250  153.8469 H       1  UNL1        0.1233
     25 C         142.2602  142.6859  165.1418 C.ar    1  UNL1        0.0204
     26 C         143.0395  142.2137  166.3333 C.ar    1  UNL1        0.0015
     27 C         142.3834  142.1481  167.6805 C.ar    1  UNL1        0.0039
     28 C         140.9480  142.5547  167.8364 C.ar    1  UNL1        0.0714
     29 C         140.1687  143.0269  166.6449 C.ar    1  UNL1        0.0039
     30 C         140.8248  143.0925  165.2975 C.ar    1  UNL1        0.0015
     31 C         140.2919  142.4891  169.1837 C.3     1  UNL1        0.4186
     32 F         139.6359  142.4234  170.5310 F       1  UNL1       -0.1659
     33 F         139.6044  141.2164  168.7869 F       1  UNL1       -0.1659
     34 F         140.9795  143.7617  169.5805 F       1  UNL1       -0.1659
@<TRIPOS>BOND
     1     1     2    1
     2     2     3   ar
     3     3     4   ar
     4     4     5   ar
     5     5    10    1
     6    10    11   ar
     7    11    12   ar
     8    12    13   ar
     9    13    16    1
    10    16    17    2
    11    16    18   am
    12    18    19    1
    13    19    20    1
    14    20    21    1
    15    21    22    1
    16    22    23    1
    17    13    14   ar
    18    14    15   ar
    19     5     6   ar
    20     6     7   ar
    21     7    25    1
    22    25    26   ar
    23    26    27   ar
    24    27    28   ar
    25    28    31    1
    26    31    32    1
    27    31    33    1
    28    31    34    1
    29    28    29   ar
    30    29    30   ar
    31     7     2   ar
    32    30    25   ar
    33    15    10   ar
    34    23    18    1
    35     1     8    1
    36     1     9    1
    37    21    24    1
