@<TRIPOS>MOLECULE
*****
 25 27 0 0 0
SMALL
GASTEIGER

@<TRIPOS>ATOM
      1 N         139.7189  141.4981  164.9057 N.3     1  UNL1       -0.2700
      2 C         139.3178  140.0697  165.1269 C.3     1  UNL1        0.0628
      3 C         138.3356  139.7252  166.2069 C.3     1  UNL1        0.0481
      4 C         137.9345  138.2969  166.4280 C.3     1  UNL1        0.1435
      5 O         138.5157  137.2131  165.5692 O.3     1  UNL1       -0.3537
      6 C         139.4979  137.5576  164.4892 C.3     1  UNL1        0.1435
      7 C         139.8990  138.9859  164.2680 C.3     1  UNL1        0.0481
      8 C         138.8956  142.3787  164.0131 C.3     1  UNL1        0.0748
      9 C         138.4904  143.7939  164.3013 C.3     1  UNL1        0.0344
     10 C         137.6773  144.2886  163.1420 C.3     1  UNL1        0.0700
     11 N         137.5798  143.1791  162.1373 N.3     1  UNL1       -0.2963
     12 C         138.3327  141.9987  162.6757 C.3     1  UNL1        0.0847
     13 H         137.9898  143.4767  161.2520 H       1  UNL1        0.1233
     14 C         140.9433  142.0459  165.5770 C.3     1  UNL1        0.0988
     15 C         142.4984  140.0023  167.1281 C.3     1  UNL1        0.0307
     16 C         141.7826  141.1059  167.8491 C.ar    1  UNL1       -0.0206
     17 C         141.0051  142.1276  167.0736 C.ar    1  UNL1       -0.0101
     18 C         140.2892  143.2312  167.7946 C.ar    1  UNL1       -0.0032
     19 C         140.3509  143.3129  169.2910 C.ar    1  UNL1       -0.0004
     20 C         141.1284  142.2912  170.0665 C.ar    1  UNL1        0.0035
     21 C         141.8443  141.1876  169.3455 C.ar    1  UNL1        0.0672
     22 C         142.6218  140.1659  170.1211 C.3     1  UNL1        0.4183
     23 F         143.3993  139.1442  170.8967 F       1  UNL1       -0.1659
     24 F         141.4228  139.2647  170.1359 F       1  UNL1       -0.1659
     25 F         143.8208  141.0671  170.1063 F       1  UNL1       -0.1659
@<TRIPOS>BOND
     1    15    16    1
     2    16    17   ar
     3    17    14    1
     4    14     1    1
     5     1     2    1
     6     2     3    1
     7     3     4    1
     8     4     5    1
     9     5     6    1
    10     6     7    1
    11     8     1    1
    12     8     9    1
    13     9    10    1
    14    10    11    1
    15    11    12    1
    16    17    18   ar
    17    18    19   ar
    18    19    20   ar
    19    20    21   ar
    20    21    22    1
    21    22    23    1
    22    22    24    1
    23    22    25    1
    24    21    16   ar
    25     7     2    1
    26    12     8    1
    27    11    13    1
@<TRIPOS>MOLECULE
*****
 25 27 0 0 0
SMALL
GASTEIGER

@<TRIPOS>ATOM
      1 N         141.8161  142.2066  167.1099 N.3     1  UNL1       -0.2700
      2 C         142.7969  141.5660  166.1729 C.3     1  UNL1        0.0628
      3 C         143.6441  142.4190  165.2759 C.3     1  UNL1        0.0481
      4 C         144.6248  141.7784  164.3390 C.3     1  UNL1        0.1435
      5 O         144.7582  140.2849  164.2991 O.3     1  UNL1       -0.3537
      6 C         143.9110  139.4319  165.1961 C.3     1  UNL1        0.1435
      7 C         142.9303  140.0725  166.1330 C.3     1  UNL1        0.0481
      8 C         142.2250  142.5320  168.5160 C.3     1  UNL1        0.0748
      9 C         143.6003  142.3737  169.0934 C.3     1  UNL1        0.0344
     10 C         143.5556  142.8167  170.5258 C.3     1  UNL1        0.0700
     11 N         142.1525  143.2488  170.8337 N.3     1  UNL1       -0.2963
     12 C         141.3302  143.0728  169.5916 C.3     1  UNL1        0.0847
     13 H         142.1464  144.2286  171.1170 H       1  UNL1        0.1233
     14 C         140.4267  142.5217  166.6409 C.3     1  UNL1        0.0988
     15 C         139.5542  139.9547  167.9251 C.3     1  UNL1        0.0307
     16 C         139.2195  140.2262  166.4883 C.ar    1  UNL1       -0.0206
     17 C         139.6557  141.5097  165.8462 C.ar    1  UNL1       -0.0101
     18 C         139.3210  141.7811  164.4095 C.ar    1  UNL1       -0.0032
     19 C         138.5501  140.7692  163.6148 C.ar    1  UNL1       -0.0004
     20 C         138.1139  139.4857  164.2569 C.ar    1  UNL1        0.0035
     21 C         138.4486  139.2142  165.6937 C.ar    1  UNL1        0.0672
     22 C         138.0123  137.9306  166.3358 C.3     1  UNL1        0.4183
     23 F         137.5761  136.6471  166.9778 F       1  UNL1       -0.1659
     24 F         137.0476  138.6897  167.1977 F       1  UNL1       -0.1659
     25 F         138.9771  137.1716  165.4738 F       1  UNL1       -0.1659
@<TRIPOS>BOND
     1    15    16    1
     2    16    17   ar
     3    17    14    1
     4    14     1    1
     5     1     2    1
     6     2     3    1
     7     3     4    1
     8     4     5    1
     9     5     6    1
    10     6     7    1
    11     8     1    1
    12     8     9    1
    13     9    10    1
    14    10    11    1
    15    11    12    1
    16    17    18   ar
    17    18    19   ar
    18    19    20   ar
    19    20    21   ar
    20    21    22    1
    21    22    23    1
    22    22    24    1
    23    22    25    1
    24    21    16   ar
    25     7     2    1
    26    12     8    1
    27    11    13    1
@<TRIPOS>MOLECULE
*****
 25 27 0 0 0
SMALL
GASTEIGER

@<TRIPOS>ATOM
      1 N         139.8148  140.5629  164.5710 N.3     1  UNL1       -0.2700
      2 C         139.5531  142.0293  164.3942 C.3     1  UNL1        0.0628
      3 C         138.2179  142.6030  164.7657 C.3     1  UNL1        0.0481
      4 C         137.9563  144.0694  164.5889 C.3     1  UNL1        0.1435
      5 O         139.0299  144.9620  164.0406 O.3     1  UNL1       -0.3537
      6 C         140.3651  144.3883  163.6691 C.3     1  UNL1        0.1435
      7 C         140.6267  142.9220  163.8459 C.3     1  UNL1        0.0481
      8 C         139.1768  139.5702  163.6450 C.3     1  UNL1        0.0748
      9 C         138.3326  139.8964  162.4487 C.3     1  UNL1        0.0344
     10 C         137.9051  138.6049  161.8170 C.3     1  UNL1        0.0700
     11 N         138.4850  137.4804  162.6228 N.3     1  UNL1       -0.2963
     12 C         139.2710  138.0771  163.7525 C.3     1  UNL1        0.0847
     13 H         139.0977  136.9141  162.0360 H       1  UNL1        0.1233
     14 C         140.7144  140.0892  165.6738 C.3     1  UNL1        0.0988
     15 C         142.3984  142.1547  167.0515 C.3     1  UNL1        0.0307
     16 C         141.2642  141.5014  167.7841 C.ar    1  UNL1       -0.0206
     17 C         140.4222  140.4687  167.0954 C.ar    1  UNL1       -0.0101
     18 C         139.2880  139.8154  167.8280 C.ar    1  UNL1       -0.0032
     19 C         138.9958  140.1948  169.2495 C.ar    1  UNL1       -0.0004
     20 C         139.8378  141.2275  169.9383 C.ar    1  UNL1        0.0035
     21 C         140.9719  141.8809  169.2056 C.ar    1  UNL1        0.0672
     22 C         141.8139  142.9137  169.8945 C.3     1  UNL1        0.4183
     23 F         142.6558  143.9464  170.5833 F       1  UNL1       -0.1659
     24 F         142.8056  141.8535  170.2720 F       1  UNL1       -0.1659
     25 F         140.8223  143.9738  169.5169 F       1  UNL1       -0.1659
@<TRIPOS>BOND
     1    15    16    1
     2    16    17   ar
     3    17    14    1
     4    14     1    1
     5     1     2    1
     6     2     3    1
     7     3     4    1
     8     4     5    1
     9     5     6    1
    10     6     7    1
    11     8     1    1
    12     8     9    1
    13     9    10    1
    14    10    11    1
    15    11    12    1
    16    17    18   ar
    17    18    19   ar
    18    19    20   ar
    19    20    21   ar
    20    21    22    1
    21    22    23    1
    22    22    24    1
    23    22    25    1
    24    21    16   ar
    25     7     2    1
    26    12     8    1
    27    11    13    1
@<TRIPOS>MOLECULE
*****
 25 27 0 0 0
SMALL
GASTEIGER

@<TRIPOS>ATOM
      1 N         140.6419  142.1143  167.1549 N.3     1  UNL1       -0.2700
      2 C         140.6323  143.0154  165.9557 C.3     1  UNL1        0.0628
      3 C         139.4044  143.8109  165.6252 C.3     1  UNL1        0.0481
      4 C         139.3949  144.7120  164.4261 C.3     1  UNL1        0.1435
      5 O         140.6132  144.8175  163.5575 O.3     1  UNL1       -0.3537
      6 C         141.8412  144.0220  163.8880 C.3     1  UNL1        0.1435
      7 C         141.8507  143.1209  165.0872 C.3     1  UNL1        0.0481
      8 C         141.2966  142.5655  168.4269 C.3     1  UNL1        0.0748
      9 C         142.6925  142.2352  168.8654 C.3     1  UNL1        0.0344
     10 C         142.9289  142.8917  170.1932 C.3     1  UNL1        0.0700
     11 N         141.6791  143.6279  170.5753 N.3     1  UNL1       -0.2963
     12 C         140.6703  143.4263  169.4837 C.3     1  UNL1        0.0847
     13 H         141.8814  144.6221  170.6804 H       1  UNL1        0.1233
     14 C         139.9968  140.7621  167.0821 C.3     1  UNL1        0.0988
     15 C         138.2219  140.1116  164.7527 C.3     1  UNL1        0.0307
     16 C         139.5594  139.4457  164.8853 C.ar    1  UNL1       -0.0206
     17 C         140.4469  139.7710  166.0500 C.ar    1  UNL1       -0.0101
     18 C         141.7845  139.1051  166.1827 C.ar    1  UNL1       -0.0032
     19 C         142.2345  138.1140  165.1506 C.ar    1  UNL1       -0.0004
     20 C         141.3470  137.7888  163.9859 C.ar    1  UNL1        0.0035
     21 C         140.0095  138.4547  163.8533 C.ar    1  UNL1        0.0672
     22 C         139.1220  138.1294  162.6885 C.3     1  UNL1        0.4183
     23 F         138.2346  137.8042  161.5237 F       1  UNL1       -0.1659
     24 F         138.4772  137.0344  163.4855 F       1  UNL1       -0.1659
     25 F         139.7668  139.2244  161.8915 F       1  UNL1       -0.1659
@<TRIPOS>BOND
     1    15    16    1
     2    16    17   ar
     3    17    14    1
     4    14     1    1
     5     1     2    1
     6     2     3    1
     7     3     4    1
     8     4     5    1
     9     5     6    1
    10     6     7    1
    11     8     1    1
    12     8     9    1
    13     9    10    1
    14    10    11    1
    15    11    12    1
    16    17    18   ar
    17    18    19   ar
    18    19    20   ar
    19    20    21   ar
    20    21    22    1
    21    22    23    1
    22    22    24    1
    23    22    25    1
    24    21    16   ar
    25     7     2    1
    26    12     8    1
    27    11    13    1
@<TRIPOS>MOLECULE
*****
 25 27 0 0 0
SMALL
GASTEIGER

@<TRIPOS>ATOM
      1 N         138.9303  140.7874  164.4926 N.3     1  UNL1       -0.2700
      2 C         139.3559  142.2238  164.4165 C.3     1  UNL1        0.0628
      3 C         138.3897  143.3125  164.7784 C.3     1  UNL1        0.0481
      4 C         138.8154  144.7488  164.7022 C.3     1  UNL1        0.1435
      5 O         140.2073  145.0964  164.2643 O.3     1  UNL1       -0.3537
      6 C         141.1735  144.0076  163.9024 C.3     1  UNL1        0.1435
      7 C         140.7478  142.5713  163.9785 C.3     1  UNL1        0.0481
      8 C         138.3486  140.1126  163.2858 C.3     1  UNL1        0.0748
      9 C         138.4598  138.6546  162.9516 C.3     1  UNL1        0.0344
     10 C         137.7336  138.4182  161.6606 C.3     1  UNL1        0.0700
     11 N         137.1736  139.7302  161.1968 N.3     1  UNL1       -0.2963
     12 C         137.5537  140.7774  162.2013 C.3     1  UNL1        0.0847
     13 H         136.1577  139.6683  161.1288 H       1  UNL1        0.1233
     14 C         139.0862  140.0259  165.7754 C.3     1  UNL1        0.0988
     15 C         139.9803  140.7196  168.5539 C.3     1  UNL1        0.0307
     16 C         140.8989  139.9689  167.6358 C.ar    1  UNL1       -0.0206
     17 C         140.4519  139.6221  166.2467 C.ar    1  UNL1       -0.0101
     18 C         141.3704  138.8714  165.3286 C.ar    1  UNL1       -0.0032
     19 C         142.7360  138.4676  165.7998 C.ar    1  UNL1       -0.0004
     20 C         143.1831  138.8144  167.1890 C.ar    1  UNL1        0.0035
     21 C         142.2645  139.5651  168.1070 C.ar    1  UNL1        0.0672
     22 C         142.7116  139.9119  169.4962 C.3     1  UNL1        0.4183
     23 F         143.1587  140.2587  170.8854 F       1  UNL1       -0.1659
     24 F         142.1620  138.6096  169.9982 F       1  UNL1       -0.1659
     25 F         143.2611  141.2141  168.9942 F       1  UNL1       -0.1659
@<TRIPOS>BOND
     1    15    16    1
     2    16    17   ar
     3    17    14    1
     4    14     1    1
     5     1     2    1
     6     2     3    1
     7     3     4    1
     8     4     5    1
     9     5     6    1
    10     6     7    1
    11     8     1    1
    12     8     9    1
    13     9    10    1
    14    10    11    1
    15    11    12    1
    16    17    18   ar
    17    18    19   ar
    18    19    20   ar
    19    20    21   ar
    20    21    22    1
    21    22    23    1
    22    22    24    1
    23    22    25    1
    24    21    16   ar
    25     7     2    1
    26    12     8    1
    27    11    13    1
@<TRIPOS>MOLECULE
*****
 25 27 0 0 0
SMALL
GASTEIGER

@<TRIPOS>ATOM
      1 N         142.3829  141.3911  166.6681 N.3     1  UNL1       -0.2700
      2 C         143.4621  141.2594  165.6346 C.3     1  UNL1        0.0628
      3 C         144.1407  142.4849  165.0984 C.3     1  UNL1        0.0481
      4 C         145.2199  142.3531  164.0650 C.3     1  UNL1        0.1435
      5 O         145.6204  140.9958  163.5678 O.3     1  UNL1       -0.3537
      6 C         144.9419  139.7703  164.1040 C.3     1  UNL1        0.1435
      7 C         143.8627  139.9021  165.1374 C.3     1  UNL1        0.0481
      8 C         142.7177  141.2542  168.1238 C.3     1  UNL1        0.0748
      9 C         142.5010  140.0329  168.9673 C.3     1  UNL1        0.0344
     10 C         142.9774  140.3384  170.3565 C.3     1  UNL1        0.0700
     11 N         143.4886  141.7486  170.3715 N.3     1  UNL1       -0.2963
     12 C         143.3281  142.3145  168.9916 C.3     1  UNL1        0.0847
     13 H         144.4735  141.7569  170.6366 H       1  UNL1        0.1233
     14 C         140.9688  141.6597  166.2458 C.3     1  UNL1        0.0988
     15 C         140.6162  140.5275  163.4901 C.3     1  UNL1        0.0307
     16 C         139.8473  139.9510  164.6419 C.ar    1  UNL1       -0.0206
     17 C         140.0237  140.5171  166.0197 C.ar    1  UNL1       -0.0101
     18 C         139.2548  139.9406  167.1714 C.ar    1  UNL1       -0.0032
     19 C         138.3097  138.7980  166.9454 C.ar    1  UNL1       -0.0004
     20 C         138.1334  138.2319  165.5676 C.ar    1  UNL1        0.0035
     21 C         138.9022  138.8084  164.4158 C.ar    1  UNL1        0.0672
     22 C         138.7258  138.2423  163.0379 C.3     1  UNL1        0.4183
     23 F         138.5495  137.6761  161.6602 F       1  UNL1       -0.1659
     24 F         137.6703  139.2687  162.7513 F       1  UNL1       -0.1659
     25 F         139.7814  137.2159  163.3246 F       1  UNL1       -0.1659
@<TRIPOS>BOND
     1    15    16    1
     2    16    17   ar
     3    17    14    1
     4    14     1    1
     5     1     2    1
     6     2     3    1
     7     3     4    1
     8     4     5    1
     9     5     6    1
    10     6     7    1
    11     8     1    1
    12     8     9    1
    13     9    10    1
    14    10    11    1
    15    11    12    1
    16    17    18   ar
    17    18    19   ar
    18    19    20   ar
    19    20    21   ar
    20    21    22    1
    21    22    23    1
    22    22    24    1
    23    22    25    1
    24    21    16   ar
    25     7     2    1
    26    12     8    1
    27    11    13    1
@<TRIPOS>MOLECULE
*****
 25 27 0 0 0
SMALL
GASTEIGER

@<TRIPOS>ATOM
      1 N         141.1265  140.9617  167.0177 N.3     1  UNL1       -0.2700
      2 C         141.4244  141.8472  168.1913 C.3     1  UNL1        0.0628
      3 C         140.4482  142.9124  168.5940 C.3     1  UNL1        0.0481
      4 C         140.7462  143.7978  169.7676 C.3     1  UNL1        0.1435
      5 O         142.0203  143.6180  170.5384 O.3     1  UNL1       -0.3537
      6 C         142.9965  142.5527  170.1357 C.3     1  UNL1        0.1435
      7 C         142.6986  141.6674  168.9621 C.3     1  UNL1        0.0481
      8 C         139.9082  140.0868  167.0285 C.3     1  UNL1        0.0748
      9 C         139.3143  139.3876  165.8418 C.3     1  UNL1        0.0344
     10 C         138.1089  138.6260  166.3078 C.3     1  UNL1        0.0700
     11 N         137.9579  138.8546  167.7825 N.3     1  UNL1       -0.2963
     12 C         139.0699  139.7574  168.2280 C.3     1  UNL1        0.0847
     13 H         138.0146  137.9650  168.2783 H       1  UNL1        0.1233
     14 C         142.0469  140.9513  165.8333 C.3     1  UNL1        0.0988
     15 C         140.3496  142.5838  163.9747 C.3     1  UNL1        0.0307
     16 C         141.7220  143.0593  164.3497 C.ar    1  UNL1       -0.0206
     17 C         142.5706  142.2431  165.2790 C.ar    1  UNL1       -0.0101
     18 C         143.9429  142.7185  165.6540 C.ar    1  UNL1       -0.0032
     19 C         144.4666  144.0102  165.0997 C.ar    1  UNL1       -0.0004
     20 C         143.6180  144.8264  164.1704 C.ar    1  UNL1        0.0035
     21 C         142.2457  144.3509  163.7954 C.ar    1  UNL1        0.0672
     22 C         141.3970  145.1672  162.8661 C.3     1  UNL1        0.4183
     23 F         140.5484  145.9835  161.9369 F       1  UNL1       -0.1659
     24 F         142.2556  144.7448  161.7110 F       1  UNL1       -0.1659
     25 F         140.5385  145.5896  164.0213 F       1  UNL1       -0.1659
@<TRIPOS>BOND
     1    15    16    1
     2    16    17   ar
     3    17    14    1
     4    14     1    1
     5     1     2    1
     6     2     3    1
     7     3     4    1
     8     4     5    1
     9     5     6    1
    10     6     7    1
    11     8     1    1
    12     8     9    1
    13     9    10    1
    14    10    11    1
    15    11    12    1
    16    17    18   ar
    17    18    19   ar
    18    19    20   ar
    19    20    21   ar
    20    21    22    1
    21    22    23    1
    22    22    24    1
    23    22    25    1
    24    21    16   ar
    25     7     2    1
    26    12     8    1
    27    11    13    1
@<TRIPOS>MOLECULE
*****
 25 27 0 0 0
SMALL
GASTEIGER

@<TRIPOS>ATOM
      1 N         141.2260  142.1139  163.9104 N.3     1  UNL1       -0.2700
      2 C         141.6843  140.7295  163.5589 C.3     1  UNL1        0.0628
      3 C         141.0509  139.9982  162.4126 C.3     1  UNL1        0.0481
      4 C         141.5092  138.6139  162.0612 C.3     1  UNL1        0.1435
      5 O         142.6008  137.9608  162.8561 O.3     1  UNL1       -0.3537
      6 C         143.2341  138.6921  164.0024 C.3     1  UNL1        0.1435
      7 C         142.7759  140.0764  164.3539 C.3     1  UNL1        0.0481
      8 C         142.0564  143.3005  163.5201 C.3     1  UNL1        0.0748
      9 C         143.1062  143.9585  164.3656 C.3     1  UNL1        0.0344
     10 C         143.6815  145.1021  163.5838 C.3     1  UNL1        0.0700
     11 N         142.9872  145.1510  162.2550 N.3     1  UNL1       -0.2963
     12 C         141.9828  144.0375  162.2157 C.3     1  UNL1        0.0847
     13 H         143.6673  145.0304  161.5045 H       1  UNL1        0.1233
     14 C         139.9373  142.3117  164.6522 C.3     1  UNL1        0.0988
     15 C         140.9686  142.3100  167.4694 C.3     1  UNL1        0.0307
     16 C         139.9794  141.2706  167.0322 C.ar    1  UNL1       -0.0206
     17 C         139.4638  141.2714  165.6236 C.ar    1  UNL1       -0.0101
     18 C         138.4747  140.2319  165.1864 C.ar    1  UNL1       -0.0032
     19 C         138.0012  139.1916  166.1577 C.ar    1  UNL1       -0.0004
     20 C         138.5168  139.1908  167.5663 C.ar    1  UNL1        0.0035
     21 C         139.5059  140.2303  168.0035 C.ar    1  UNL1        0.0672
     22 C         140.0215  140.2294  169.4122 C.3     1  UNL1        0.4183
     23 F         140.5371  140.2286  170.8208 F       1  UNL1       -0.1659
     24 F         141.2171  139.4365  168.9741 F       1  UNL1       -0.1659
     25 F         138.8260  141.0224  169.8502 F       1  UNL1       -0.1659
@<TRIPOS>BOND
     1    15    16    1
     2    16    17   ar
     3    17    14    1
     4    14     1    1
     5     1     2    1
     6     2     3    1
     7     3     4    1
     8     4     5    1
     9     5     6    1
    10     6     7    1
    11     8     1    1
    12     8     9    1
    13     9    10    1
    14    10    11    1
    15    11    12    1
    16    17    18   ar
    17    18    19   ar
    18    19    20   ar
    19    20    21   ar
    20    21    22    1
    21    22    23    1
    22    22    24    1
    23    22    25    1
    24    21    16   ar
    25     7     2    1
    26    12     8    1
    27    11    13    1
@<TRIPOS>MOLECULE
*****
 25 27 0 0 0
SMALL
GASTEIGER

@<TRIPOS>ATOM
      1 N         141.0768  139.6066  167.0392 N.3     1  UNL1       -0.2700
      2 C         140.1904  139.5854  165.8293 C.3     1  UNL1        0.0628
      3 C         139.6551  140.8697  165.2691 C.3     1  UNL1        0.0481
      4 C         138.7687  140.8485  164.0593 C.3     1  UNL1        0.1435
      5 O         138.4177  139.5429  163.4095 O.3     1  UNL1       -0.3537
      6 C         138.9530  138.2585  163.9696 C.3     1  UNL1        0.1435
      7 C         139.8394  138.2798  165.1795 C.3     1  UNL1        0.0481
      8 C         140.4843  139.8285  168.3992 C.3     1  UNL1        0.0748
      9 C         141.2485  139.9594  169.6833 C.3     1  UNL1        0.0344
     10 C         140.2600  140.1704  170.7916 C.3     1  UNL1        0.0700
     11 N         138.8849  140.1699  170.1926 N.3     1  UNL1       -0.2963
     12 C         139.0235  139.9586  168.7140 C.3     1  UNL1        0.0847
     13 H         138.4283  141.0640  170.3732 H       1  UNL1        0.1233
     14 C         142.5557  139.4058  166.8891 C.3     1  UNL1        0.0988
     15 C         142.6290  142.4045  166.9395 C.3     1  UNL1        0.0307
     16 C         143.3475  141.6548  165.8571 C.ar    1  UNL1       -0.0206
     17 C         143.3109  140.1555  165.8319 C.ar    1  UNL1       -0.0101
     18 C         144.0295  139.4058  164.7495 C.ar    1  UNL1       -0.0032
     19 C         144.7847  140.1554  163.6923 C.ar    1  UNL1       -0.0004
     20 C         144.8213  141.6547  163.7175 C.ar    1  UNL1        0.0035
     21 C         144.1027  142.4044  164.7999 C.ar    1  UNL1        0.0672
     22 C         144.1394  143.9038  164.8251 C.3     1  UNL1        0.4183
     23 F         144.1761  145.4031  164.8503 F       1  UNL1       -0.1659
     24 F         143.0226  143.9479  163.8248 F       1  UNL1       -0.1659
     25 F         145.2562  143.8596  165.8254 F       1  UNL1       -0.1659
@<TRIPOS>BOND
     1    15    16    1
     2    16    17   ar
     3    17    14    1
     4    14     1    1
     5     1     2    1
     6     2     3    1
     7     3     4    1
     8     4     5    1
     9     5     6    1
    10     6     7    1
    11     8     1    1
    12     8     9    1
    13     9    10    1
    14    10    11    1
    15    11    12    1
    16    17    18   ar
    17    18    19   ar
    18    19    20   ar
    19    20    21   ar
    20    21    22    1
    21    22    23    1
    22    22    24    1
    23    22    25    1
    24    21    16   ar
    25     7     2    1
    26    12     8    1
    27    11    13    1
