@<TRIPOS>MOLECULE
*****
 24 27 0 0 0
SMALL
GASTEIGER

@<TRIPOS>ATOM
      1 C         139.7971  139.6325  166.7360 C.ar    1  UNL1        0.0191
      2 C         138.5975  138.7701  166.4768 C.ar    1  UNL1        0.0046
      3 C         138.4447  138.0751  165.1563 C.ar    1  UNL1        0.0369
      4 C         139.4914  138.2425  164.0951 C.ar    1  UNL1        0.1384
      5 C         140.6910  139.1049  164.3543 C.ar    1  UNL1        0.0369
      6 C         140.8439  139.7999  165.6748 C.ar    1  UNL1        0.0046
      7 O         140.4086  142.4123  172.0179 O.2     1  UNL1       -0.2711
      8 C         140.2557  141.7174  170.6974 C.2     1  UNL1        0.2671
      9 C         140.9743  142.2381  169.4882 C.3     1  UNL1        0.1163
     10 C         140.8215  141.5432  168.1677 C.2     1  UNL1        0.0043
     11 C         139.9500  140.3274  168.0565 C.2     1  UNL1        0.0968
     12 N         139.2314  139.8067  169.2657 N.2     1  UNL1       -0.1564
     13 N         139.3842  140.5016  170.5862 N.am    1  UNL1       -0.0790
     14 O         139.3386  137.5476  162.7746 O.3     1  UNL1       -0.4791
     15 C         139.0175  138.3405  161.5425 C.3     1  UNL1        0.1687
     16 C         139.9842  138.3691  160.3959 C.3     1  UNL1        0.0609
     17 C         139.6632  139.1620  159.1637 C.3     1  UNL1        0.0758
     18 N         138.3754  139.9264  159.0782 N.3     1  UNL1       -0.2737
     19 C         137.4087  139.8978  160.2247 C.3     1  UNL1        0.0758
     20 C         137.7297  139.1049  161.4569 C.3     1  UNL1        0.0609
     21 C         138.0543  140.7193  157.8460 C.3     1  UNL1        0.0575
     22 C         137.8900  140.3972  156.3903 C.3     1  UNL1        0.0160
     23 C         137.6003  141.8408  156.1035 C.3     1  UNL1        0.0028
     24 C         137.7646  142.1629  157.5592 C.3     1  UNL1        0.0160
@<TRIPOS>BOND
     1     7     8    2
     2     8     9    1
     3     9    10    1
     4    10    11    2
     5    11     1    1
     6     1     2   ar
     7     2     3   ar
     8     3     4   ar
     9     4    14    1
    10    14    15    1
    11    15    16    1
    12    16    17    1
    13    17    18    1
    14    18    21    1
    15    21    22    1
    16    22    23    1
    17    23    24    1
    18    18    19    1
    19    19    20    1
    20     4     5   ar
    21     5     6   ar
    22    11    12    1
    23    12    13    2
    24    13     8    1
    25     6     1   ar
    26    20    15    1
    27    24    21    1
@<TRIPOS>MOLECULE
*****
 24 27 0 0 0
SMALL
GASTEIGER

@<TRIPOS>ATOM
      1 C         140.2480  139.6367  166.7392 C.ar    1  UNL1        0.0191
      2 C         139.0730  139.0237  166.0367 C.ar    1  UNL1        0.0046
      3 C         139.2889  138.1504  164.8364 C.ar    1  UNL1        0.0369
      4 C         140.6797  137.8900  164.3386 C.ar    1  UNL1        0.1384
      5 C         141.8546  138.5030  165.0411 C.ar    1  UNL1        0.0369
      6 C         141.6388  139.3764  166.2414 C.ar    1  UNL1        0.0046
      7 O         139.3847  143.1301  171.5404 O.2     1  UNL1       -0.2711
      8 C         139.6006  142.2567  170.3401 C.2     1  UNL1        0.2671
      9 C         140.3499  142.7852  169.1530 C.3     1  UNL1        0.1163
     10 C         140.5657  141.9119  167.9527 C.2     1  UNL1        0.0043
     11 C         140.0322  140.5101  167.9395 C.2     1  UNL1        0.0968
     12 N         139.2829  139.9816  169.1266 N.2     1  UNL1       -0.1564
     13 N         139.0671  140.8549  170.3269 N.am    1  UNL1       -0.0790
     14 O         140.8955  137.0167  163.1383 O.3     1  UNL1       -0.4791
     15 C         141.2072  137.6346  161.8075 C.3     1  UNL1        0.1687
     16 C         142.6155  137.6322  161.2910 C.3     1  UNL1        0.0609
     17 C         142.9273  138.2501  159.9602 C.3     1  UNL1        0.0758
     18 N         141.8308  138.8703  159.1459 N.3     1  UNL1       -0.2737
     19 C         140.4226  138.8726  159.6624 C.3     1  UNL1        0.0758
     20 C         140.1108  138.2548  160.9933 C.3     1  UNL1        0.0609
     21 C         142.1426  139.4882  157.8151 C.3     1  UNL1        0.0575
     22 C         141.3769  140.3117  156.8225 C.3     1  UNL1        0.0160
     23 C         142.5837  140.3619  155.9331 C.3     1  UNL1        0.0028
     24 C         143.3495  139.5384  156.9257 C.3     1  UNL1        0.0160
@<TRIPOS>BOND
     1     7     8    2
     2     8     9    1
     3     9    10    1
     4    10    11    2
     5    11     1    1
     6     1     2   ar
     7     2     3   ar
     8     3     4   ar
     9     4    14    1
    10    14    15    1
    11    15    16    1
    12    16    17    1
    13    17    18    1
    14    18    21    1
    15    21    22    1
    16    22    23    1
    17    23    24    1
    18    18    19    1
    19    19    20    1
    20     4     5   ar
    21     5     6   ar
    22    11    12    1
    23    12    13    2
    24    13     8    1
    25     6     1   ar
    26    20    15    1
    27    24    21    1
@<TRIPOS>MOLECULE
*****
 24 27 0 0 0
SMALL
GASTEIGER

@<TRIPOS>ATOM
      1 C         142.6774  140.4115  167.1899 C.ar    1  UNL1        0.0191
      2 C         142.9710  141.3832  166.0856 C.ar    1  UNL1        0.0046
      3 C         143.5621  140.8966  164.7958 C.ar    1  UNL1        0.0369
      4 C         143.8597  139.4382  164.6102 C.ar    1  UNL1        0.1384
      5 C         143.5661  138.4665  165.7144 C.ar    1  UNL1        0.0369
      6 C         142.9749  138.9531  167.0043 C.ar    1  UNL1        0.0046
      7 O         140.3126  142.3579  172.3493 O.2     1  UNL1       -0.2711
      8 C         140.9038  141.8713  171.0594 C.2     1  UNL1        0.2671
      9 C         140.2608  142.2370  169.7546 C.3     1  UNL1        0.1163
     10 C         140.8520  141.7504  168.4647 C.2     1  UNL1        0.0043
     11 C         142.0862  140.8981  168.4797 C.2     1  UNL1        0.0968
     12 N         142.7292  140.5323  169.7846 N.2     1  UNL1       -0.1564
     13 N         142.1380  141.0189  171.0745 N.am    1  UNL1       -0.0790
     14 O         144.4509  138.9516  163.3203 O.3     1  UNL1       -0.4791
     15 C         143.5809  138.7951  162.1085 C.3     1  UNL1        0.1687
     16 C         144.1017  139.1826  160.7562 C.3     1  UNL1        0.0609
     17 C         143.2318  139.0261  159.5443 C.3     1  UNL1        0.0758
     18 N         141.8410  138.4819  159.6847 N.3     1  UNL1       -0.2737
     19 C         141.3202  138.0944  161.0369 C.3     1  UNL1        0.0758
     20 C         142.1902  138.2510  162.2488 C.3     1  UNL1        0.0609
     21 C         140.9711  138.3254  158.4727 C.3     1  UNL1        0.0575
     22 C         139.6199  138.8327  158.0643 C.3     1  UNL1        0.0160
     23 C         139.7408  138.1039  156.7588 C.3     1  UNL1        0.0028
     24 C         141.0921  137.5966  157.1673 C.3     1  UNL1        0.0160
@<TRIPOS>BOND
     1     7     8    2
     2     8     9    1
     3     9    10    1
     4    10    11    2
     5    11     1    1
     6     1     2   ar
     7     2     3   ar
     8     3     4   ar
     9     4    14    1
    10    14    15    1
    11    15    16    1
    12    16    17    1
    13    17    18    1
    14    18    21    1
    15    21    22    1
    16    22    23    1
    17    23    24    1
    18    18    19    1
    19    19    20    1
    20     4     5   ar
    21     5     6   ar
    22    11    12    1
    23    12    13    2
    24    13     8    1
    25     6     1   ar
    26    20    15    1
    27    24    21    1
@<TRIPOS>MOLECULE
*****
 24 27 0 0 0
SMALL
GASTEIGER

@<TRIPOS>ATOM
      1 C         139.1361  139.9196  166.2798 C.ar    1  UNL1        0.0191
      2 C         139.1875  138.4736  165.8845 C.ar    1  UNL1        0.0046
      3 C         138.8360  138.0658  164.4845 C.ar    1  UNL1        0.0369
      4 C         138.4331  139.1040  163.4797 C.ar    1  UNL1        0.1384
      5 C         138.3817  140.5500  163.8749 C.ar    1  UNL1        0.0369
      6 C         138.7332  140.9579  165.2749 C.ar    1  UNL1        0.0046
      7 O         140.5422  141.5509  171.8799 O.2     1  UNL1       -0.2711
      8 C         140.1907  141.1431  170.4799 C.2     1  UNL1        0.2671
      9 C         140.8471  141.8211  169.3140 C.3     1  UNL1        0.1163
     10 C         140.4956  141.4133  167.9140 C.2     1  UNL1        0.0043
     11 C         139.4876  140.3274  167.6798 C.2     1  UNL1        0.0968
     12 N         138.8312  139.6494  168.8457 N.2     1  UNL1       -0.1564
     13 N         139.1827  140.0573  170.2457 N.am    1  UNL1       -0.0790
     14 O         138.0816  138.6962  162.0796 O.3     1  UNL1       -0.4791
     15 C         139.1098  138.7874  160.9913 C.3     1  UNL1        0.1687
     16 C         140.5045  138.2914  161.2337 C.3     1  UNL1        0.0609
     17 C         141.5328  138.3826  160.1455 C.3     1  UNL1        0.0758
     18 N         141.1663  138.9699  158.8147 N.3     1  UNL1       -0.2737
     19 C         139.7717  139.4660  158.5723 C.3     1  UNL1        0.0758
     20 C         138.7434  139.3747  159.6606 C.3     1  UNL1        0.0609
     21 C         142.1946  139.0611  157.7264 C.3     1  UNL1        0.0575
     22 C         143.2727  140.0394  157.3652 C.3     1  UNL1        0.0160
     23 C         143.6488  139.1901  156.1873 C.3     1  UNL1        0.0028
     24 C         142.5706  138.2118  156.5486 C.3     1  UNL1        0.0160
@<TRIPOS>BOND
     1     7     8    2
     2     8     9    1
     3     9    10    1
     4    10    11    2
     5    11     1    1
     6     1     2   ar
     7     2     3   ar
     8     3     4   ar
     9     4    14    1
    10    14    15    1
    11    15    16    1
    12    16    17    1
    13    17    18    1
    14    18    21    1
    15    21    22    1
    16    22    23    1
    17    23    24    1
    18    18    19    1
    19    19    20    1
    20     4     5   ar
    21     5     6   ar
    22    11    12    1
    23    12    13    2
    24    13     8    1
    25     6     1   ar
    26    20    15    1
    27    24    21    1
@<TRIPOS>MOLECULE
*****
 24 27 0 0 0
SMALL
GASTEIGER

@<TRIPOS>ATOM
      1 C         140.1767  141.5539  166.9860 C.ar    1  UNL1        0.0191
      2 C         140.0039  142.2875  165.6892 C.ar    1  UNL1        0.0046
      3 C         139.1640  141.6934  164.5976 C.ar    1  UNL1        0.0369
      4 C         138.4970  140.3656  164.8028 C.ar    1  UNL1        0.1384
      5 C         138.6698  139.6320  166.0997 C.ar    1  UNL1        0.0369
      6 C         139.5097  140.2262  167.1913 C.ar    1  UNL1        0.0046
      7 O         143.5363  143.9304  171.3525 O.2     1  UNL1       -0.2711
      8 C         142.6964  143.3362  170.2609 C.2     1  UNL1        0.2671
      9 C         143.2877  142.3219  169.3274 C.3     1  UNL1        0.1163
     10 C         142.4478  141.7278  168.2358 C.2     1  UNL1        0.0043
     11 C         141.0166  142.1480  168.0777 C.2     1  UNL1        0.0968
     12 N         140.4253  143.1624  169.0111 N.2     1  UNL1       -0.1564
     13 N         141.2652  143.7565  170.1027 N.am    1  UNL1       -0.0790
     14 O         137.6571  139.7715  163.7112 O.3     1  UNL1       -0.4791
     15 C         138.2598  139.4997  162.3648 C.3     1  UNL1        0.1687
     16 C         139.3872  138.5192  162.2319 C.3     1  UNL1        0.0609
     17 C         139.9899  138.2474  160.8855 C.3     1  UNL1        0.0758
     18 N         139.4653  138.9560  159.6720 N.3     1  UNL1       -0.2737
     19 C         138.3379  139.9365  159.8049 C.3     1  UNL1        0.0758
     20 C         137.7351  140.2083  161.1513 C.3     1  UNL1        0.0609
     21 C         140.0681  138.6841  158.3256 C.3     1  UNL1        0.0575
     22 C         141.4442  138.3580  157.8259 C.3     1  UNL1        0.0160
     23 C         140.9204  138.2997  156.4215 C.3     1  UNL1        0.0028
     24 C         139.5443  138.6258  156.9212 C.3     1  UNL1        0.0160
@<TRIPOS>BOND
     1     7     8    2
     2     8     9    1
     3     9    10    1
     4    10    11    2
     5    11     1    1
     6     1     2   ar
     7     2     3   ar
     8     3     4   ar
     9     4    14    1
    10    14    15    1
    11    15    16    1
    12    16    17    1
    13    17    18    1
    14    18    21    1
    15    21    22    1
    16    22    23    1
    17    23    24    1
    18    18    19    1
    19    19    20    1
    20     4     5   ar
    21     5     6   ar
    22    11    12    1
    23    12    13    2
    24    13     8    1
    25     6     1   ar
    26    20    15    1
    27    24    21    1
@<TRIPOS>MOLECULE
*****
 24 27 0 0 0
SMALL
GASTEIGER

@<TRIPOS>ATOM
      1 C         142.5837  140.0550  166.0884 C.ar    1  UNL1        0.0191
      2 C         143.7343  139.1397  165.7914 C.ar    1  UNL1        0.0046
      3 C         144.4092  139.1932  164.4528 C.ar    1  UNL1        0.0369
      4 C         143.9333  140.1620  163.4113 C.ar    1  UNL1        0.1384
      5 C         142.7827  141.0773  163.7082 C.ar    1  UNL1        0.0369
      6 C         142.1079  141.0238  165.0468 C.ar    1  UNL1        0.0046
      7 O         139.8844  139.8410  171.4426 O.2     1  UNL1       -0.2711
      8 C         140.5593  139.8945  170.1041 C.2     1  UNL1        0.2671
      9 C         139.7893  140.3306  168.8929 C.3     1  UNL1        0.1163
     10 C         140.4642  140.3841  167.5544 C.2     1  UNL1        0.0043
     11 C         141.9089  140.0015  167.4269 C.2     1  UNL1        0.0968
     12 N         142.6788  139.5653  168.6381 N.2     1  UNL1       -0.1564
     13 N         142.0040  139.5118  169.9767 N.am    1  UNL1       -0.0790
     14 O         144.6082  140.2155  162.0727 O.3     1  UNL1       -0.4791
     15 C         144.0379  139.4521  160.9142 C.3     1  UNL1        0.1687
     16 C         143.6918  138.0009  161.0698 C.3     1  UNL1        0.0609
     17 C         143.1216  137.2375  159.9113 C.3     1  UNL1        0.0758
     18 N         142.8974  137.9253  158.5973 N.3     1  UNL1       -0.2737
     19 C         143.2435  139.3765  158.4417 C.3     1  UNL1        0.0758
     20 C         143.8138  140.1399  159.6002 C.3     1  UNL1        0.0609
     21 C         142.3271  137.1619  157.4388 C.3     1  UNL1        0.0575
     22 C         142.7286  135.9336  156.6773 C.3     1  UNL1        0.0160
     23 C         141.5206  136.0823  155.8005 C.3     1  UNL1        0.0028
     24 C         141.1191  137.3106  156.5621 C.3     1  UNL1        0.0160
@<TRIPOS>BOND
     1     7     8    2
     2     8     9    1
     3     9    10    1
     4    10    11    2
     5    11     1    1
     6     1     2   ar
     7     2     3   ar
     8     3     4   ar
     9     4    14    1
    10    14    15    1
    11    15    16    1
    12    16    17    1
    13    17    18    1
    14    18    21    1
    15    21    22    1
    16    22    23    1
    17    23    24    1
    18    18    19    1
    19    19    20    1
    20     4     5   ar
    21     5     6   ar
    22    11    12    1
    23    12    13    2
    24    13     8    1
    25     6     1   ar
    26    20    15    1
    27    24    21    1
@<TRIPOS>MOLECULE
*****
 24 27 0 0 0
SMALL
GASTEIGER

@<TRIPOS>ATOM
      1 C         141.5372  139.6403  166.9539 C.ar    1  UNL1        0.0191
      2 C         140.4601  139.5626  165.9129 C.ar    1  UNL1        0.0046
      3 C         140.7385  138.9065  164.5930 C.ar    1  UNL1        0.0369
      4 C         142.0941  138.3281  164.3142 C.ar    1  UNL1        0.1384
      5 C         143.1712  138.4058  165.3552 C.ar    1  UNL1        0.0369
      6 C         142.8928  139.0619  166.6750 C.ar    1  UNL1        0.0046
      7 O         140.4235  142.2647  172.2333 O.2     1  UNL1       -0.2711
      8 C         140.7019  141.6086  170.9134 C.2     1  UNL1        0.2671
      9 C         139.5662  141.1174  170.0657 C.3     1  UNL1        0.1163
     10 C         139.8446  140.4613  168.7458 C.2     1  UNL1        0.0043
     11 C         141.2588  140.2964  168.2737 C.2     1  UNL1        0.0968
     12 N         142.3945  140.7877  169.1215 N.2     1  UNL1       -0.1564
     13 N         142.1161  141.4438  170.4413 N.am    1  UNL1       -0.0790
     14 O         142.3726  137.6720  162.9944 O.3     1  UNL1       -0.4791
     15 C         142.8353  138.4963  161.8298 C.3     1  UNL1        0.1687
     16 C         143.4841  139.8283  162.0644 C.3     1  UNL1        0.0609
     17 C         143.9469  140.6527  160.8999 C.3     1  UNL1        0.0758
     18 N         143.7608  140.1452  159.5006 N.3     1  UNL1       -0.2737
     19 C         143.1119  138.8133  159.2660 C.3     1  UNL1        0.0758
     20 C         142.6492  137.9889  160.4306 C.3     1  UNL1        0.0609
     21 C         144.2235  140.9696  158.3360 C.3     1  UNL1        0.0575
     22 C         144.8055  142.3424  158.1730 C.3     1  UNL1        0.0160
     23 C         144.8779  142.1355  156.6891 C.3     1  UNL1        0.0028
     24 C         144.2959  140.7627  156.8522 C.3     1  UNL1        0.0160
@<TRIPOS>BOND
     1     7     8    2
     2     8     9    1
     3     9    10    1
     4    10    11    2
     5    11     1    1
     6     1     2   ar
     7     2     3   ar
     8     3     4   ar
     9     4    14    1
    10    14    15    1
    11    15    16    1
    12    16    17    1
    13    17    18    1
    14    18    21    1
    15    21    22    1
    16    22    23    1
    17    23    24    1
    18    18    19    1
    19    19    20    1
    20     4     5   ar
    21     5     6   ar
    22    11    12    1
    23    12    13    2
    24    13     8    1
    25     6     1   ar
    26    20    15    1
    27    24    21    1
@<TRIPOS>MOLECULE
*****
 24 27 0 0 0
SMALL
GASTEIGER

@<TRIPOS>ATOM
      1 C         138.6287  139.5421  160.3246 C.ar    1  UNL1        0.0191
      2 C         137.9046  140.3330  161.3735 C.ar    1  UNL1        0.0046
      3 C         137.9602  139.9023  162.8092 C.ar    1  UNL1        0.0369
      4 C         138.7398  138.6806  163.1961 C.ar    1  UNL1        0.1384
      5 C         139.4638  137.8897  162.1472 C.ar    1  UNL1        0.0369
      6 C         139.4083  138.3205  160.7115 C.ar    1  UNL1        0.0046
      7 O         138.4065  141.2652  154.5816 O.2     1  UNL1       -0.2711
      8 C         138.4621  140.8344  156.0174 C.2     1  UNL1        0.2671
      9 C         139.7853  140.5529  156.6653 C.3     1  UNL1        0.1163
     10 C         139.8408  140.1222  158.1010 C.2     1  UNL1        0.0043
     11 C         138.5732  139.9729  158.8889 C.2     1  UNL1        0.0968
     12 N         137.2500  140.2544  158.2409 N.2     1  UNL1       -0.1564
     13 N         137.1944  140.6852  156.8052 N.am    1  UNL1       -0.0790
     14 O         138.7953  138.2498  164.6318 O.3     1  UNL1       -0.4791
     15 C         139.7024  138.9591  165.5931 C.3     1  UNL1        0.1687
     16 C         141.1898  138.8073  165.4718 C.3     1  UNL1        0.0609
     17 C         142.0969  139.5166  166.4331 C.3     1  UNL1        0.0758
     18 N         141.5167  140.3776  167.5157 N.3     1  UNL1       -0.2737
     19 C         140.0294  140.5293  167.6370 C.3     1  UNL1        0.0758
     20 C         139.1222  139.8200  166.6757 C.3     1  UNL1        0.0609
     21 C         142.4239  141.0868  168.4770 C.3     1  UNL1        0.0575
     22 C         142.9382  140.8019  169.8569 C.3     1  UNL1        0.0160
     23 C         143.7068  142.0899  169.8364 C.3     1  UNL1        0.0028
     24 C         143.1924  142.3748  168.4564 C.3     1  UNL1        0.0160
@<TRIPOS>BOND
     1     7     8    2
     2     8     9    1
     3     9    10    1
     4    10    11    2
     5    11     1    1
     6     1     2   ar
     7     2     3   ar
     8     3     4   ar
     9     4    14    1
    10    14    15    1
    11    15    16    1
    12    16    17    1
    13    17    18    1
    14    18    21    1
    15    21    22    1
    16    22    23    1
    17    23    24    1
    18    18    19    1
    19    19    20    1
    20     4     5   ar
    21     5     6   ar
    22    11    12    1
    23    12    13    2
    24    13     8    1
    25     6     1   ar
    26    20    15    1
    27    24    21    1
@<TRIPOS>MOLECULE
*****
 24 27 0 0 0
SMALL
GASTEIGER

@<TRIPOS>ATOM
      1 C         140.4368  142.9597  166.0291 C.ar    1  UNL1        0.0191
      2 C         139.4112  143.9600  165.5847 C.ar    1  UNL1        0.0046
      3 C         139.6296  144.7509  164.3290 C.ar    1  UNL1        0.0369
      4 C         140.8737  144.5414  163.5177 C.ar    1  UNL1        0.1384
      5 C         141.8993  143.5412  163.9620 C.ar    1  UNL1        0.0369
      6 C         141.6809  142.7503  165.2177 C.ar    1  UNL1        0.0046
      7 O         139.5630  139.7963  171.0519 O.2     1  UNL1       -0.2711
      8 C         139.7815  140.5871  169.7962 C.2     1  UNL1        0.2671
      9 C         139.5728  139.9425  168.4580 C.3     1  UNL1        0.1163
     10 C         139.7912  140.7334  167.2023 C.2     1  UNL1        0.0043
     11 C         140.2184  142.1689  167.2848 C.2     1  UNL1        0.0968
     12 N         140.4270  142.8135  168.6230 N.2     1  UNL1       -0.1564
     13 N         140.2086  142.0226  169.8787 N.am    1  UNL1       -0.0790
     14 O         141.0922  145.3323  162.2620 O.3     1  UNL1       -0.4791
     15 C         140.5909  144.8084  160.9489 C.3     1  UNL1        0.1687
     16 C         139.7824  143.5456  160.9046 C.3     1  UNL1        0.0609
     17 C         139.2812  143.0217  159.5915 C.3     1  UNL1        0.0758
     18 N         139.5884  143.7605  158.3227 N.3     1  UNL1       -0.2737
     19 C         140.3968  145.0232  158.3669 C.3     1  UNL1        0.0758
     20 C         140.8981  145.5471  159.6801 C.3     1  UNL1        0.0609
     21 C         139.0871  143.2365  157.0096 C.3     1  UNL1        0.0575
     22 C         138.2724  143.8009  155.8837 C.3     1  UNL1        0.0160
     23 C         138.3782  142.4954  155.1526 C.3     1  UNL1        0.0028
     24 C         139.1930  141.9310  156.2785 C.3     1  UNL1        0.0160
@<TRIPOS>BOND
     1     7     8    2
     2     8     9    1
     3     9    10    1
     4    10    11    2
     5    11     1    1
     6     1     2   ar
     7     2     3   ar
     8     3     4   ar
     9     4    14    1
    10    14    15    1
    11    15    16    1
    12    16    17    1
    13    17    18    1
    14    18    21    1
    15    21    22    1
    16    22    23    1
    17    23    24    1
    18    18    19    1
    19    19    20    1
    20     4     5   ar
    21     5     6   ar
    22    11    12    1
    23    12    13    2
    24    13     8    1
    25     6     1   ar
    26    20    15    1
    27    24    21    1
