@<TRIPOS>MOLECULE
*****
 38 41 0 0 0
SMALL
GASTEIGER

@<TRIPOS>ATOM
      1 C         144.0214  138.1297  161.6473 C.3     0  UNK0        0.0308
      2 C         143.1106  139.3165  161.5379 C.ar    0  UNK0       -0.0230
      3 C         142.4978  139.6723  160.2158 C.ar    0  UNK0        0.0348
      4 C         141.5870  140.8591  160.1064 C.ar    0  UNK0        0.0025
      5 C         141.2889  141.6900  161.3190 C.ar    0  UNK0       -0.0031
      6 C         141.9017  141.3343  162.6412 C.ar    0  UNK0       -0.0103
      7 C         142.8125  140.1475  162.7506 C.ar    0  UNK0       -0.0273
      8 C         143.4252  139.7917  164.0727 C.3     0  UNK0        0.0431
      9 C         143.1271  140.6227  165.2853 C.3     0  UNK0        0.0775
     10 N         142.2163  141.8095  165.1759 N.3     0  UNK0       -0.2609
     11 C         141.6036  142.1653  163.8538 C.3     0  UNK0        0.0992
     12 C         142.7959  138.8413  159.0031 C.ar    0  UNK0        0.2033
     13 N         143.5795  139.2829  157.8026 N.ar    0  UNK0       -0.0556
     14 O         143.6306  138.1373  156.8355 O.2     0  UNK0       -0.3324
     15 C         142.8787  136.9879  157.4383 C.ar    0  UNK0        0.2600
     16 N         142.3628  137.4229  158.7779 N.ar    0  UNK0       -0.1870
     17 C         142.6779  135.6400  156.8116 C.ar    0  UNK0        0.0569
     18 C         141.7569  135.4885  155.6373 C.ar    0  UNK0        0.0079
     19 C         141.5561  134.1407  155.0105 C.ar    0  UNK0        0.0377
     20 C         142.2762  132.9442  155.5580 C.ar    0  UNK0        0.1479
     21 C         143.1972  133.0956  156.7324 C.ar    0  UNK0        0.1024
     22 C         143.3980  134.4435  157.3591 C.ar    0  UNK0        0.0181
     23 C         143.9173  131.8990  157.2799 C.1     0  UNK0        0.1035
     24 N         144.6374  130.7025  157.8274 N.1     0  UNK0       -0.1907
     25 O         142.0754  131.5963  154.9312 O.3     0  UNK0       -0.4785
     26 C         142.9219  131.1774  153.7659 C.3     0  UNK0        0.1662
     27 C         142.6015  131.6769  152.3883 C.3     0  UNK0        0.0472
     28 C         144.0887  130.2591  153.9782 C.3     0  UNK0        0.0472
     29 C         141.9182  142.6405  166.3887 C.3     0  UNK0        0.1587
     30 C         142.2492  142.1185  167.7554 C.2     0  UNK0        0.2389
     31 O         143.5128  142.5515  168.4379 O.2     0  UNK0       -0.2736
     32 N         141.3165  141.1635  168.4396 N.am    1  ALA1       -0.3024
     33 H         140.4872  140.8793  167.9917 H       1  ALA1        0.1495
     34 CA        141.6475  140.6415  169.8063 C.3     1  ALA1        0.1009
     35 CB        142.4620  139.3907  169.9544 C.3     1  ALA1        0.0239
     36 C         141.1639  141.3703  171.0249 C.3     1  ALA1        0.1565
     37 O         142.1389  142.1083  171.8937 O.3     1  ALA1       -0.3802
     38 H         142.7427  141.4750  172.3123 H       1  ALA1        0.2105
@<TRIPOS>BOND
     1     1     2    1
     2     2     3   ar
     3     3    12    1
     4    12    13   ar
     5    13    14   ar
     6    14    15   ar
     7    15    17    1
     8    17    18   ar
     9    18    19   ar
    10    19    20   ar
    11    20    25    1
    12    25    26    1
    13    26    27    1
    14    26    28    1
    15    20    21   ar
    16    21    23    1
    17    23    24    3
    18    21    22   ar
    19    15    16   ar
    20     3     4   ar
    21     4     5   ar
    22     5     6   ar
    23     6     7   ar
    24     7     8    1
    25     8     9    1
    26     9    10    1
    27    10    29    1
    28    29    30    1
    29    30    31    2
    30    30    32   am
    31    32    34    1
    32    34    35    1
    33    34    36    1
    34    36    37    1
    35    10    11    1
    36     7     2   ar
    37    16    12   ar
    38    11     6    1
    39    22    17   ar
    40    32    33    1
    41    37    38    1
@<TRIPOS>MOLECULE
*****
 38 41 0 0 0
SMALL
GASTEIGER

@<TRIPOS>ATOM
      1 C         140.5280  145.2593  160.4667 C.3     0  UNK0        0.0308
      2 C         140.3655  144.1779  159.4401 C.ar    0  UNK0       -0.0230
      3 C         139.6297  142.9179  159.7879 C.ar    0  UNK0        0.0348
      4 C         139.4672  141.8364  158.7612 C.ar    0  UNK0        0.0025
      5 C         140.0405  142.0150  157.3867 C.ar    0  UNK0       -0.0031
      6 C         140.7763  143.2750  157.0388 C.ar    0  UNK0       -0.0103
      7 C         140.9388  144.3564  158.0654 C.ar    0  UNK0       -0.0273
      8 C         141.6746  145.6164  157.7176 C.3     0  UNK0        0.0431
      9 C         142.2479  145.7950  156.3430 C.3     0  UNK0        0.0775
     10 N         142.0854  144.7135  155.3163 N.3     0  UNK0       -0.2609
     11 C         141.3496  143.4535  155.6642 C.3     0  UNK0        0.0992
     12 C         139.0564  142.7393  161.1625 C.ar    0  UNK0        0.2033
     13 N         137.7347  143.2627  161.6413 N.ar    0  UNK0       -0.0556
     14 O         137.5655  142.8528  163.0744 O.2     0  UNK0       -0.3324
     15 C         138.7827  142.0762  163.4811 C.ar    0  UNK0        0.2600
     16 N         139.7041  142.0061  162.2996 N.ar    0  UNK0       -0.1870
     17 C         139.0343  141.4754  164.8322 C.ar    0  UNK0        0.0569
     18 C         140.0776  142.0663  165.7335 C.ar    0  UNK0        0.0079
     19 C         140.3292  141.4654  167.0846 C.ar    0  UNK0        0.0377
     20 C         139.5375  140.2735  167.5345 C.ar    0  UNK0        0.1479
     21 C         138.4941  139.6824  166.6333 C.ar    0  UNK0        0.1024
     22 C         138.2426  140.2834  165.2822 C.ar    0  UNK0        0.0181
     23 C         137.7024  138.4905  167.0833 C.1     0  UNK0        0.1035
     24 N         136.9106  137.2986  167.5332 N.1     0  UNK0       -0.1907
     25 O         139.7891  139.6726  168.8857 O.3     0  UNK0       -0.4785
     26 C         140.9939  140.0859  169.6778 C.3     0  UNK0        0.1662
     27 C         140.8774  141.1670  170.7111 C.3     0  UNK0        0.0472
     28 C         142.3152  139.4182  169.4366 C.3     0  UNK0        0.0472
     29 C         142.6587  144.8921  153.9417 C.3     0  UNK0        0.1587
     30 C         143.9444  144.2140  153.5714 C.2     0  UNK0        0.2389
     31 O         144.0972  143.5830  152.2192 O.2     0  UNK0       -0.2736
     32 N         145.0774  144.1669  154.5534 N.am    1  ALA1       -0.3024
     33 H         144.9772  144.5811  155.4409 H       1  ALA1        0.1495
     34 CA        146.3631  143.4888  154.1831 C.3     1  ALA1        0.1009
     35 CB        146.6004  142.0623  154.5814 C.3     1  ALA1        0.0239
     36 C         147.4115  144.2373  153.4146 C.3     1  ALA1        0.1565
     37 O         147.3048  145.7248  153.2538 O.3     1  ALA1       -0.3802
     38 H         146.5264  145.9367  152.7151 H       1  ALA1        0.2105
@<TRIPOS>BOND
     1     1     2    1
     2     2     3   ar
     3     3    12    1
     4    12    13   ar
     5    13    14   ar
     6    14    15   ar
     7    15    17    1
     8    17    18   ar
     9    18    19   ar
    10    19    20   ar
    11    20    25    1
    12    25    26    1
    13    26    27    1
    14    26    28    1
    15    20    21   ar
    16    21    23    1
    17    23    24    3
    18    21    22   ar
    19    15    16   ar
    20     3     4   ar
    21     4     5   ar
    22     5     6   ar
    23     6     7   ar
    24     7     8    1
    25     8     9    1
    26     9    10    1
    27    10    29    1
    28    29    30    1
    29    30    31    2
    30    30    32   am
    31    32    34    1
    32    34    35    1
    33    34    36    1
    34    36    37    1
    35    10    11    1
    36     7     2   ar
    37    16    12   ar
    38    11     6    1
    39    22    17   ar
    40    32    33    1
    41    37    38    1
@<TRIPOS>MOLECULE
*****
 38 41 0 0 0
SMALL
GASTEIGER

@<TRIPOS>ATOM
      1 C         141.2161  144.2120  161.4773 C.3     0  UNK0        0.0308
      2 C         142.0317  143.8539  160.2704 C.ar    0  UNK0       -0.0230
      3 C         143.1588  142.8717  160.3914 C.ar    0  UNK0        0.0348
      4 C         143.9744  142.5136  159.1845 C.ar    0  UNK0        0.0025
      5 C         143.6629  143.1378  157.8566 C.ar    0  UNK0       -0.0031
      6 C         142.5357  144.1202  157.7356 C.ar    0  UNK0       -0.0103
      7 C         141.7201  144.4782  158.9425 C.ar    0  UNK0       -0.0273
      8 C         140.5930  145.4605  158.8216 C.3     0  UNK0        0.0431
      9 C         140.2815  146.0848  157.4937 C.3     0  UNK0        0.0775
     10 N         141.0971  145.7267  156.2868 N.3     0  UNK0       -0.2609
     11 C         142.2242  144.7444  156.4078 C.3     0  UNK0        0.0992
     12 C         143.4704  142.2474  161.7193 C.ar    0  UNK0        0.2033
     13 N         144.7562  141.5733  162.0966 N.ar    0  UNK0       -0.0556
     14 O         144.6314  141.0969  163.5135 O.2     0  UNK0       -0.3324
     15 C         143.2684  141.4765  164.0117 C.ar    0  UNK0        0.2600
     16 N         142.5509  142.1875  162.9029 N.ar    0  UNK0       -0.1870
     17 C         142.7193  141.1945  165.3788 C.ar    0  UNK0        0.0569
     18 C         141.6584  140.1498  165.5603 C.ar    0  UNK0        0.0079
     19 C         141.1094  139.8678  166.9273 C.ar    0  UNK0        0.0377
     20 C         141.6212  140.6307  168.1131 C.ar    0  UNK0        0.1479
     21 C         142.6822  141.6755  167.9318 C.ar    0  UNK0        0.1024
     22 C         143.2312  141.9574  166.5646 C.ar    0  UNK0        0.0181
     23 C         143.1940  142.4383  169.1176 C.1     0  UNK0        0.1035
     24 N         143.7059  143.2012  170.3033 N.1     0  UNK0       -0.1907
     25 O         141.0722  140.3487  169.4803 O.3     0  UNK0       -0.4785
     26 C         139.7994  141.0046  169.9272 C.3     0  UNK0        0.1662
     27 C         139.7953  142.4574  170.3007 C.3     0  UNK0        0.0472
     28 C         138.5307  140.2077  170.0008 C.3     0  UNK0        0.0472
     29 C         140.7855  146.3510  154.9589 C.3     0  UNK0        0.1587
     30 C         139.8643  147.5323  154.8832 C.2     0  UNK0        0.2389
     31 O         138.3798  147.3321  154.9628 O.2     0  UNK0       -0.2736
     32 N         140.4275  148.9139  154.7279 N.am    1  ALA1       -0.3024
     33 H         141.4017  149.0454  154.6757 H       1  ALA1        0.1495
     34 CA        139.5062  150.0952  154.6522 C.3     1  ALA1        0.1009
     35 CB        139.3181  150.8175  153.3511 C.3     1  ALA1        0.0239
     36 C         138.7730  150.5543  155.8777 C.3     1  ALA1        0.1565
     37 O         137.5702  149.7984  156.3593 O.3     1  ALA1       -0.3802
     38 H         136.8575  149.8744  155.7057 H       1  ALA1        0.2105
@<TRIPOS>BOND
     1     1     2    1
     2     2     3   ar
     3     3    12    1
     4    12    13   ar
     5    13    14   ar
     6    14    15   ar
     7    15    17    1
     8    17    18   ar
     9    18    19   ar
    10    19    20   ar
    11    20    25    1
    12    25    26    1
    13    26    27    1
    14    26    28    1
    15    20    21   ar
    16    21    23    1
    17    23    24    3
    18    21    22   ar
    19    15    16   ar
    20     3     4   ar
    21     4     5   ar
    22     5     6   ar
    23     6     7   ar
    24     7     8    1
    25     8     9    1
    26     9    10    1
    27    10    29    1
    28    29    30    1
    29    30    31    2
    30    30    32   am
    31    32    34    1
    32    34    35    1
    33    34    36    1
    34    36    37    1
    35    10    11    1
    36     7     2   ar
    37    16    12   ar
    38    11     6    1
    39    22    17   ar
    40    32    33    1
    41    37    38    1
@<TRIPOS>MOLECULE
*****
 38 41 0 0 0
SMALL
GASTEIGER

@<TRIPOS>ATOM
      1 C         140.2695  138.8376  160.0416 C.3     0  UNK0        0.0308
      2 C         141.4998  139.2177  160.8108 C.ar    0  UNK0       -0.0230
      3 C         142.8572  138.8782  160.2702 C.ar    0  UNK0        0.0348
      4 C         144.0875  139.2583  161.0394 C.ar    0  UNK0        0.0025
      5 C         143.9605  139.9780  162.3493 C.ar    0  UNK0       -0.0031
      6 C         142.6032  140.3176  162.8901 C.ar    0  UNK0       -0.0103
      7 C         141.3728  139.9374  162.1208 C.ar    0  UNK0       -0.0273
      8 C         140.0155  140.2769  162.6615 C.3     0  UNK0        0.0431
      9 C         139.8885  140.9966  163.9714 C.3     0  UNK0        0.0775
     10 N         141.1189  141.3767  164.7406 N.3     0  UNK0       -0.2609
     11 C         142.4762  141.0372  164.2000 C.3     0  UNK0        0.0992
     12 C         142.9842  138.1585  158.9602 C.ar    0  UNK0        0.2033
     13 N         143.3888  138.7723  157.6527 N.ar    0  UNK0       -0.0556
     14 O         143.3836  137.6919  156.6121 O.2     0  UNK0       -0.3324
     15 C         142.9757  136.4103  157.2766 C.ar    0  UNK0        0.2600
     16 N         142.7289  136.6988  158.7278 N.ar    0  UNK0       -0.1870
     17 C         142.8388  135.0750  156.6074 C.ar    0  UNK0        0.0569
     18 C         142.1577  134.9699  155.2751 C.ar    0  UNK0        0.0079
     19 C         142.0208  133.6345  154.6059 C.ar    0  UNK0        0.0377
     20 C         142.5649  132.4040  155.2690 C.ar    0  UNK0        0.1479
     21 C         143.2461  132.5090  156.6014 C.ar    0  UNK0        0.1024
     22 C         143.3830  133.8445  157.2706 C.ar    0  UNK0        0.0181
     23 C         143.7902  131.2784  157.2645 C.1     0  UNK0        0.1035
     24 N         144.3344  130.0479  157.9276 N.1     0  UNK0       -0.1907
     25 O         142.4280  131.0686  154.5999 O.3     0  UNK0       -0.4785
     26 C         141.2648  130.1805  154.9289 C.3     0  UNK0        0.1662
     27 C         141.4985  128.8466  155.5740 C.3     0  UNK0        0.0472
     28 C         139.8679  130.6264  154.6130 C.3     0  UNK0        0.0472
     29 C         140.9919  142.0964  166.0506 C.3     0  UNK0        0.1587
     30 C         140.7558  141.3209  167.3126 C.2     0  UNK0        0.2389
     31 O         141.0253  139.8457  167.3479 O.2     0  UNK0       -0.2736
     32 N         140.2502  142.0205  168.5395 N.am    1  ALA1       -0.3024
     33 H         140.0733  142.9887  168.5163 H       1  ALA1        0.1495
     34 CA        140.0141  141.2449  169.8015 C.3     1  ALA1        0.1009
     35 CB        138.8196  140.3451  169.9164 C.3     1  ALA1        0.0239
     36 C         140.9726  141.3692  170.9486 C.3     1  ALA1        0.1565
     37 O         140.5954  142.1731  172.1574 O.3     1  ALA1       -0.3802
     38 H         140.5143  143.1079  171.9116 H       1  ALA1        0.2105
@<TRIPOS>BOND
     1     1     2    1
     2     2     3   ar
     3     3    12    1
     4    12    13   ar
     5    13    14   ar
     6    14    15   ar
     7    15    17    1
     8    17    18   ar
     9    18    19   ar
    10    19    20   ar
    11    20    25    1
    12    25    26    1
    13    26    27    1
    14    26    28    1
    15    20    21   ar
    16    21    23    1
    17    23    24    3
    18    21    22   ar
    19    15    16   ar
    20     3     4   ar
    21     4     5   ar
    22     5     6   ar
    23     6     7   ar
    24     7     8    1
    25     8     9    1
    26     9    10    1
    27    10    29    1
    28    29    30    1
    29    30    31    2
    30    30    32   am
    31    32    34    1
    32    34    35    1
    33    34    36    1
    34    36    37    1
    35    10    11    1
    36     7     2   ar
    37    16    12   ar
    38    11     6    1
    39    22    17   ar
    40    32    33    1
    41    37    38    1
@<TRIPOS>MOLECULE
*****
 38 41 0 0 0
SMALL
GASTEIGER

@<TRIPOS>ATOM
      1 C         143.0874  142.4248  159.5526 C.3     0  UNK0        0.0308
      2 C         141.6421  142.5174  159.1618 C.ar    0  UNK0       -0.0230
      3 C         140.6229  141.6575  159.8485 C.ar    0  UNK0        0.0348
      4 C         139.1777  141.7501  159.4578 C.ar    0  UNK0        0.0025
      5 C         138.7517  142.7026  158.3803 C.ar    0  UNK0       -0.0031
      6 C         139.7709  143.5626  157.6935 C.ar    0  UNK0       -0.0103
      7 C         141.2161  143.4700  158.0842 C.ar    0  UNK0       -0.0273
      8 C         142.2353  144.3300  157.3975 C.3     0  UNK0        0.0431
      9 C         141.8093  145.2826  156.3200 C.3     0  UNK0        0.0775
     10 N         140.3641  145.3752  155.9292 N.3     0  UNK0       -0.2609
     11 C         139.3449  144.5152  156.6159 C.3     0  UNK0        0.0992
     12 C         141.0489  140.7048  160.9261 C.ar    0  UNK0        0.2033
     13 N         141.3438  139.2451  160.7463 N.ar    0  UNK0       -0.0556
     14 O         141.7320  138.6828  162.0817 O.2     0  UNK0       -0.3324
     15 C         141.6770  139.7950  163.0868 C.ar    0  UNK0        0.2600
     16 N         141.2549  141.0447  162.3725 N.ar    0  UNK0       -0.1870
     17 C         141.9893  139.6781  164.5491 C.ar    0  UNK0        0.0569
     18 C         141.3018  140.5735  165.5369 C.ar    0  UNK0        0.0079
     19 C         141.6141  140.4566  166.9993 C.ar    0  UNK0        0.0377
     20 C         142.6140  139.4442  167.4741 C.ar    0  UNK0        0.1479
     21 C         143.3015  138.5487  166.4864 C.ar    0  UNK0        0.1024
     22 C         142.9891  138.6657  165.0239 C.ar    0  UNK0        0.0181
     23 C         144.3014  137.5363  166.9611 C.1     0  UNK0        0.1035
     24 N         145.3012  136.5240  167.4359 N.1     0  UNK0       -0.1907
     25 O         142.9263  139.3272  168.9365 O.3     0  UNK0       -0.4785
     26 C         142.6257  140.4693  169.8613 C.3     0  UNK0        0.1662
     27 C         141.4081  140.4253  170.7364 C.3     0  UNK0        0.0472
     28 C         143.5426  141.6554  169.9111 C.3     0  UNK0        0.0472
     29 C         139.9381  146.3278  154.8516 C.3     0  UNK0        0.1587
     30 C         139.6293  147.7556  155.1919 C.2     0  UNK0        0.2389
     31 O         140.1499  148.8629  154.3243 O.2     0  UNK0       -0.2736
     32 N         138.7999  148.0763  156.4000 N.am    1  ALA1       -0.3024
     33 H         138.4582  147.3495  156.9695 H       1  ALA1        0.1495
     34 CA        138.4911  149.5041  156.7403 C.3     1  ALA1        0.1009
     35 CB        137.9652  149.8540  158.1008 C.3     1  ALA1        0.0239
     36 C         138.7082  150.5821  155.7201 C.3     1  ALA1        0.1565
     37 O         139.9745  151.3859  155.7362 O.3     1  ALA1       -0.3802
     38 H         140.0087  151.9192  156.5457 H       1  ALA1        0.2105
@<TRIPOS>BOND
     1     1     2    1
     2     2     3   ar
     3     3    12    1
     4    12    13   ar
     5    13    14   ar
     6    14    15   ar
     7    15    17    1
     8    17    18   ar
     9    18    19   ar
    10    19    20   ar
    11    20    25    1
    12    25    26    1
    13    26    27    1
    14    26    28    1
    15    20    21   ar
    16    21    23    1
    17    23    24    3
    18    21    22   ar
    19    15    16   ar
    20     3     4   ar
    21     4     5   ar
    22     5     6   ar
    23     6     7   ar
    24     7     8    1
    25     8     9    1
    26     9    10    1
    27    10    29    1
    28    29    30    1
    29    30    31    2
    30    30    32   am
    31    32    34    1
    32    34    35    1
    33    34    36    1
    34    36    37    1
    35    10    11    1
    36     7     2   ar
    37    16    12   ar
    38    11     6    1
    39    22    17   ar
    40    32    33    1
    41    37    38    1
@<TRIPOS>MOLECULE
*****
 38 41 0 0 0
SMALL
GASTEIGER

@<TRIPOS>ATOM
      1 C         141.4942  143.3451  164.9506 C.3     0  UNK0        0.0308
      2 C         140.7825  142.2011  165.6099 C.ar    0  UNK0       -0.0230
      3 C         139.5387  141.6350  164.9915 C.ar    0  UNK0        0.0348
      4 C         138.8271  140.4909  165.6509 C.ar    0  UNK0        0.0025
      5 C         139.3593  139.9130  166.9287 C.ar    0  UNK0       -0.0031
      6 C         140.6032  140.4791  167.5471 C.ar    0  UNK0       -0.0103
      7 C         141.3148  141.6231  166.8878 C.ar    0  UNK0       -0.0273
      8 C         142.5586  142.1892  167.5062 C.3     0  UNK0        0.0431
      9 C         143.0907  141.6113  168.7839 C.3     0  UNK0        0.0775
     10 N         142.3791  140.4672  169.4433 N.3     0  UNK0       -0.2609
     11 C         141.1353  139.9011  168.8249 C.3     0  UNK0        0.0992
     12 C         139.0065  142.2129  163.7137 C.ar    0  UNK0        0.2033
     13 N         137.8922  143.2099  163.5939 N.ar    0  UNK0       -0.0556
     14 O         137.6921  143.5085  162.1375 O.2     0  UNK0       -0.3324
     15 C         138.6828  142.6961  161.3574 C.ar    0  UNK0        0.2600
     16 N         139.4951  141.8954  162.3316 N.ar    0  UNK0       -0.1870
     17 C         138.8345  142.6861  159.8652 C.ar    0  UNK0        0.0569
     18 C         138.2555  141.5608  159.0599 C.ar    0  UNK0        0.0079
     19 C         138.4072  141.5508  157.5677 C.ar    0  UNK0        0.0377
     20 C         139.1380  142.6662  156.8806 C.ar    0  UNK0        0.1479
     21 C         139.7170  143.7915  157.6859 C.ar    0  UNK0        0.1024
     22 C         139.5653  143.8014  159.1781 C.ar    0  UNK0        0.0181
     23 C         140.4478  144.9069  156.9988 C.1     0  UNK0        0.1035
     24 N         141.1785  146.0222  156.3117 N.1     0  UNK0       -0.1907
     25 O         139.2897  142.6562  155.3883 O.3     0  UNK0       -0.4785
     26 C         138.1496  143.0904  154.5156 C.3     0  UNK0        0.1662
     27 C         137.7392  142.2486  153.3438 C.3     0  UNK0        0.0472
     28 C         137.4199  144.3663  154.8147 C.3     0  UNK0        0.0472
     29 C         142.9113  139.8893  170.7211 C.3     0  UNK0        0.1587
     30 C         143.6279  138.5716  170.7071 C.2     0  UNK0        0.2389
     31 O         143.4298  137.6223  169.5628 O.2     0  UNK0       -0.2736
     32 N         144.5426  138.2032  171.8375 N.am    1  ALA1       -0.3024
     33 H         144.6727  138.8263  172.5886 H       1  ALA1        0.1495
     34 CA        145.2592  136.8856  171.8235 C.3     1  ALA1        0.1009
     35 CB        146.7530  136.8456  171.6931 C.3     1  ALA1        0.0239
     36 C         144.4820  135.6079  171.9399 C.3     1  ALA1        0.1565
     37 O         144.4096  134.8913  173.2556 O.3     1  ALA1       -0.3802
     38 H         145.2916  134.5672  173.4962 H       1  ALA1        0.2105
@<TRIPOS>BOND
     1     1     2    1
     2     2     3   ar
     3     3    12    1
     4    12    13   ar
     5    13    14   ar
     6    14    15   ar
     7    15    17    1
     8    17    18   ar
     9    18    19   ar
    10    19    20   ar
    11    20    25    1
    12    25    26    1
    13    26    27    1
    14    26    28    1
    15    20    21   ar
    16    21    23    1
    17    23    24    3
    18    21    22   ar
    19    15    16   ar
    20     3     4   ar
    21     4     5   ar
    22     5     6   ar
    23     6     7   ar
    24     7     8    1
    25     8     9    1
    26     9    10    1
    27    10    29    1
    28    29    30    1
    29    30    31    2
    30    30    32   am
    31    32    34    1
    32    34    35    1
    33    34    36    1
    34    36    37    1
    35    10    11    1
    36     7     2   ar
    37    16    12   ar
    38    11     6    1
    39    22    17   ar
    40    32    33    1
    41    37    38    1
@<TRIPOS>MOLECULE
*****
 38 41 0 0 0
SMALL
GASTEIGER

@<TRIPOS>ATOM
      1 C         143.0540  138.1933  159.8430 C.3     0  UNK0        0.0308
      2 C         141.8548  138.2977  158.9481 C.ar    0  UNK0       -0.0230
      3 C         140.7049  139.1798  159.3347 C.ar    0  UNK0        0.0348
      4 C         139.5056  139.2841  158.4397 C.ar    0  UNK0        0.0025
      5 C         139.4563  138.5064  157.1581 C.ar    0  UNK0       -0.0031
      6 C         140.6063  137.6242  156.7714 C.ar    0  UNK0       -0.0103
      7 C         141.8055  137.5199  157.6664 C.ar    0  UNK0       -0.0273
      8 C         142.9554  136.6378  157.2797 C.3     0  UNK0        0.0431
      9 C         142.9061  135.8600  155.9981 C.3     0  UNK0        0.0775
     10 N         141.7069  135.9644  155.1031 N.3     0  UNK0       -0.2609
     11 C         140.5570  136.8465  155.4897 C.3     0  UNK0        0.0992
     12 C         140.7541  139.9576  160.6164 C.ar    0  UNK0        0.2033
     13 N         141.2110  141.3782  160.7685 N.ar    0  UNK0       -0.0556
     14 O         141.0944  141.7500  162.2171 O.2     0  UNK0       -0.3324
     15 C         140.5655  140.5591  162.9602 C.ar    0  UNK0        0.2600
     16 N         140.3552  139.4513  161.9709 N.ar    0  UNK0       -0.1870
     17 C         140.2945  140.4883  164.4337 C.ar    0  UNK0        0.0569
     18 C         141.0933  141.3297  165.3845 C.ar    0  UNK0        0.0079
     19 C         140.8223  141.2590  166.8581 C.ar    0  UNK0        0.0377
     20 C         139.7525  140.3468  167.3810 C.ar    0  UNK0        0.1479
     21 C         138.9536  139.5054  166.4302 C.ar    0  UNK0        0.1024
     22 C         139.2247  139.5762  164.9566 C.ar    0  UNK0        0.0181
     23 C         137.8837  138.5933  166.9531 C.1     0  UNK0        0.1035
     24 N         136.8139  137.6811  167.4760 N.1     0  UNK0       -0.1907
     25 O         139.4814  140.2761  168.8546 O.3     0  UNK0       -0.4785
     26 C         140.5966  140.4949  169.8336 C.3     0  UNK0        0.1662
     27 C         140.6316  141.7437  170.6638 C.3     0  UNK0        0.0472
     28 C         141.6768  139.4648  169.9824 C.3     0  UNK0        0.0472
     29 C         141.6576  135.1866  153.8214 C.3     0  UNK0        0.1587
     30 C         141.6972  133.6874  153.8519 C.2     0  UNK0        0.2389
     31 O         142.3040  132.9298  152.7083 O.2     0  UNK0       -0.2736
     32 N         141.1301  132.9459  155.0260 N.am    1  ALA1       -0.3024
     33 H         140.7318  133.4431  155.7766 H       1  ALA1        0.1495
     34 CA        141.1697  131.4467  155.0564 C.3     1  ALA1        0.1009
     35 CB        139.9569  130.6563  154.6636 C.3     1  ALA1        0.0239
     36 C         142.4221  130.7380  155.4797 C.3     1  ALA1        0.1565
     37 O         143.6527  130.8152  154.6257 O.3     1  ALA1       -0.3802
     38 H         143.4893  130.3658  153.7817 H       1  ALA1        0.2105
@<TRIPOS>BOND
     1     1     2    1
     2     2     3   ar
     3     3    12    1
     4    12    13   ar
     5    13    14   ar
     6    14    15   ar
     7    15    17    1
     8    17    18   ar
     9    18    19   ar
    10    19    20   ar
    11    20    25    1
    12    25    26    1
    13    26    27    1
    14    26    28    1
    15    20    21   ar
    16    21    23    1
    17    23    24    3
    18    21    22   ar
    19    15    16   ar
    20     3     4   ar
    21     4     5   ar
    22     5     6   ar
    23     6     7   ar
    24     7     8    1
    25     8     9    1
    26     9    10    1
    27    10    29    1
    28    29    30    1
    29    30    31    2
    30    30    32   am
    31    32    34    1
    32    34    35    1
    33    34    36    1
    34    36    37    1
    35    10    11    1
    36     7     2   ar
    37    16    12   ar
    38    11     6    1
    39    22    17   ar
    40    32    33    1
    41    37    38    1
@<TRIPOS>MOLECULE
*****
 38 41 0 0 0
SMALL
GASTEIGER

@<TRIPOS>ATOM
      1 C         138.8063  141.7725  158.7668 C.3     0  UNK0        0.0308
      2 C         139.6863  142.9866  158.8045 C.ar    0  UNK0       -0.0230
      3 C         140.6274  143.1955  159.9537 C.ar    0  UNK0        0.0348
      4 C         141.5074  144.4096  159.9914 C.ar    0  UNK0        0.0025
      5 C         141.4464  145.4149  158.8798 C.ar    0  UNK0       -0.0031
      6 C         140.5053  145.2061  157.7305 C.ar    0  UNK0       -0.0103
      7 C         139.6253  143.9920  157.6928 C.ar    0  UNK0       -0.0273
      8 C         138.6842  143.7831  156.5436 C.3     0  UNK0        0.0431
      9 C         138.6232  144.7884  155.4321 C.3     0  UNK0        0.0775
     10 N         139.5032  146.0026  155.4697 N.3     0  UNK0       -0.2609
     11 C         140.4443  146.2114  156.6190 C.3     0  UNK0        0.0992
     12 C         140.6884  142.1901  161.0653 C.ar    0  UNK0        0.2033
     13 N         141.1572  140.7703  160.9452 N.ar    0  UNK0       -0.0556
     14 O         141.0499  140.1308  162.2978 O.2     0  UNK0       -0.3324
     15 C         140.5148  141.1554  163.2539 C.ar    0  UNK0        0.2600
     16 N         140.2914  142.4281  162.4921 N.ar    0  UNK0       -0.1870
     17 C         140.2497  140.9443  164.7150 C.ar    0  UNK0        0.0569
     18 C         141.0121  141.7339  165.7374 C.ar    0  UNK0        0.0079
     19 C         140.7470  141.5228  167.1985 C.ar    0  UNK0        0.0377
     20 C         139.7195  140.5221  167.6375 C.ar    0  UNK0        0.1479
     21 C         138.9570  139.7324  166.6151 C.ar    0  UNK0        0.1024
     22 C         139.2222  139.9436  165.1539 C.ar    0  UNK0        0.0181
     23 C         137.9294  138.7317  167.0540 C.1     0  UNK0        0.1035
     24 N         136.9019  137.7309  167.4929 N.1     0  UNK0       -0.1907
     25 O         139.4543  140.3110  169.0987 O.3     0  UNK0       -0.4785
     26 C         140.1853  141.1314  170.1197 C.3     0  UNK0        0.1662
     27 C         139.7003  142.5090  170.4619 C.3     0  UNK0        0.0472
     28 C         141.4013  140.5742  170.7987 C.3     0  UNK0        0.0472
     29 C         139.4422  147.0079  154.3581 C.3     0  UNK0        0.1587
     30 C         139.4900  148.4744  154.6697 C.2     0  UNK0        0.2389
     31 O         138.7484  149.0135  155.8568 O.2     0  UNK0       -0.2736
     32 N         140.2795  149.4018  153.7940 N.am    1  ALA1       -0.3024
     33 H         140.7663  149.0480  153.0149 H       1  ALA1        0.1495
     34 CA        140.3273  150.8683  154.1056 C.3     1  ALA1        0.1009
     35 CB        141.6029  151.4906  154.5910 C.3     1  ALA1        0.0239
     36 C         139.0997  151.7124  153.9318 C.3     1  ALA1        0.1565
     37 O         138.1301  151.8684  155.0656 O.3     1  ALA1       -0.3802
     38 H         137.7135  151.0131  155.2548 H       1  ALA1        0.2105
@<TRIPOS>BOND
     1     1     2    1
     2     2     3   ar
     3     3    12    1
     4    12    13   ar
     5    13    14   ar
     6    14    15   ar
     7    15    17    1
     8    17    18   ar
     9    18    19   ar
    10    19    20   ar
    11    20    25    1
    12    25    26    1
    13    26    27    1
    14    26    28    1
    15    20    21   ar
    16    21    23    1
    17    23    24    3
    18    21    22   ar
    19    15    16   ar
    20     3     4   ar
    21     4     5   ar
    22     5     6   ar
    23     6     7   ar
    24     7     8    1
    25     8     9    1
    26     9    10    1
    27    10    29    1
    28    29    30    1
    29    30    31    2
    30    30    32   am
    31    32    34    1
    32    34    35    1
    33    34    36    1
    34    36    37    1
    35    10    11    1
    36     7     2   ar
    37    16    12   ar
    38    11     6    1
    39    22    17   ar
    40    32    33    1
    41    37    38    1
@<TRIPOS>MOLECULE
*****
 38 41 0 0 0
SMALL
GASTEIGER

@<TRIPOS>ATOM
      1 C         137.9174  137.5622  153.7311 C.3     0  UNK0        0.0308
      2 C         138.7793  138.0326  154.8651 C.ar    0  UNK0       -0.0230
      3 C         138.3946  139.2570  155.6415 C.ar    0  UNK0        0.0348
      4 C         139.2564  139.7275  156.7755 C.ar    0  UNK0        0.0025
      5 C         140.5029  138.9736  157.1330 C.ar    0  UNK0       -0.0031
      6 C         140.8877  137.7492  156.3566 C.ar    0  UNK0       -0.0103
      7 C         140.0258  137.2787  155.2226 C.ar    0  UNK0       -0.0273
      8 C         140.4105  136.0543  154.4462 C.3     0  UNK0        0.0431
      9 C         141.6570  135.3005  154.8037 C.3     0  UNK0        0.0775
     10 N         142.5188  135.7710  155.9377 N.3     0  UNK0       -0.2609
     11 C         142.1342  136.9953  156.7141 C.3     0  UNK0        0.0992
     12 C         137.1481  140.0110  155.2840 C.ar    0  UNK0        0.2033
     13 N         137.0637  141.1839  154.3528 N.ar    0  UNK0       -0.0556
     14 O         135.6305  141.6222  154.2882 O.2     0  UNK0       -0.3324
     15 C         134.8293  140.7201  155.1795 C.ar    0  UNK0        0.2600
     16 N         135.7672  139.7243  155.7949 N.ar    0  UNK0       -0.1870
     17 C         133.3500  140.7998  155.4141 C.ar    0  UNK0        0.0569
     18 C         132.5143  141.7557  154.6154 C.ar    0  UNK0        0.0079
     19 C         131.0349  141.8354  154.8500 C.ar    0  UNK0        0.0377
     20 C         130.3912  140.9593  155.8834 C.ar    0  UNK0        0.1479
     21 C         131.2268  140.0033  156.6822 C.ar    0  UNK0        0.1024
     22 C         132.7062  139.9237  156.4475 C.ar    0  UNK0        0.0181
     23 C         130.5830  139.1272  157.7156 C.1     0  UNK0        0.1035
     24 N         129.9393  138.2510  158.7490 N.1     0  UNK0       -0.1907
     25 O         128.9118  141.0390  156.1181 O.3     0  UNK0       -0.4785
     26 C         127.9877  140.0950  155.4073 C.3     0  UNK0        0.1662
     27 C         127.1272  139.1524  156.1953 C.3     0  UNK0        0.0472
     28 C         127.9243  140.0938  153.9087 C.3     0  UNK0        0.0472
     29 C         143.7654  135.0170  156.2952 C.3     0  UNK0        0.1587
     30 C         143.7030  133.5388  156.5421 C.2     0  UNK0        0.2389
     31 O         142.4784  132.9328  157.1610 O.2     0  UNK0       -0.2736
     32 N         144.8654  132.6666  156.1702 N.am    1  ALA1       -0.3024
     33 H         145.6692  133.0643  155.7641 H       1  ALA1        0.1495
     34 CA        144.8030  131.1884  156.4172 C.3     1  ALA1        0.1009
     35 CB        144.7976  130.2342  155.2598 C.3     1  ALA1        0.0239
     36 C         144.7460  130.6643  157.8215 C.3     1  ALA1        0.1565
     37 O         143.4575  130.1265  158.3696 O.3     1  ALA1       -0.3802
     38 H         142.8102  130.8457  158.4384 H       1  ALA1        0.2105
@<TRIPOS>BOND
     1     1     2    1
     2     2     3   ar
     3     3    12    1
     4    12    13   ar
     5    13    14   ar
     6    14    15   ar
     7    15    17    1
     8    17    18   ar
     9    18    19   ar
    10    19    20   ar
    11    20    25    1
    12    25    26    1
    13    26    27    1
    14    26    28    1
    15    20    21   ar
    16    21    23    1
    17    23    24    3
    18    21    22   ar
    19    15    16   ar
    20     3     4   ar
    21     4     5   ar
    22     5     6   ar
    23     6     7   ar
    24     7     8    1
    25     8     9    1
    26     9    10    1
    27    10    29    1
    28    29    30    1
    29    30    31    2
    30    30    32   am
    31    32    34    1
    32    34    35    1
    33    34    36    1
    34    36    37    1
    35    10    11    1
    36     7     2   ar
    37    16    12   ar
    38    11     6    1
    39    22    17   ar
    40    32    33    1
    41    37    38    1
