@<TRIPOS>MOLECULE
*****
 24 27 0 0 0
SMALL
GASTEIGER

@<TRIPOS>ATOM
      1 O         137.4672  138.2332  166.6541 O.2     1  UNL1       -0.2666
      2 C         138.7180  138.9994  166.3404 C.2     1  UNL1        0.2837
      3 C         139.4396  139.7360  167.4298 C.ar    1  UNL1        0.1985
      4 N         139.1586  139.8875  168.8954 N.ar    1  UNL1       -0.2226
      5 C         140.2357  140.7472  169.4875 C.ar    1  UNL1        0.0993
      6 C         140.4768  141.2333  170.8859 C.ar    1  UNL1        0.0207
      7 C         141.6646  142.0992  171.1846 C.ar    1  UNL1        0.0021
      8 C         142.6113  142.4791  170.0849 C.ar    1  UNL1        0.0082
      9 C         142.3703  141.9930  168.6865 C.ar    1  UNL1        0.0518
     10 BR        143.3170  142.3729  167.5868 Br      1  UNL1       -0.0474
     11 C         141.1825  141.1271  168.3878 C.ar    1  UNL1        0.0853
     12 N         140.6904  140.5021  167.1161 N.ar    1  UNL1       -0.3056
     13 C         141.2197  140.5317  165.7129 C.3     1  UNL1        0.1291
     14 C         140.4982  139.7951  164.6235 C.3     1  UNL1        0.1186
     15 N         139.2474  139.0289  164.9372 N.am    1  UNL1       -0.2674
     16 C         138.5259  138.2923  163.8477 C.3     1  UNL1        0.1228
     17 C         138.5814  138.7978  162.4366 C.ar    1  UNL1        0.0252
     18 C         139.3531  138.0390  161.3980 C.ar    1  UNL1        0.0001
     19 C         139.4086  138.5445  159.9867 C.ar    1  UNL1        0.0066
     20 C         138.6924  139.8087  159.6142 C.ar    1  UNL1        0.0368
     21 BR        138.7480  140.3142  158.2030 Br      1  UNL1       -0.0489
     22 C         137.9207  140.5675  160.6529 C.ar    1  UNL1        0.0361
     23 C         137.8652  140.0620  162.0640 C.ar    1  UNL1        0.1382
     24 F         137.0935  140.8207  163.1026 F       1  UNL1       -0.2044
@<TRIPOS>BOND
     1     1     2    2
     2     2     3    1
     3     3     4   ar
     4     4     5   ar
     5     5     6   ar
     6     6     7   ar
     7     7     8   ar
     8     8     9   ar
     9     9    10    1
    10     9    11   ar
    11    11    12   ar
    12    12    13    1
    13    13    14    1
    14    14    15    1
    15    15    16    1
    16    16    17    1
    17    17    18   ar
    18    18    19   ar
    19    19    20   ar
    20    20    21    1
    21    20    22   ar
    22    22    23   ar
    23    23    24    1
    24    15     2   am
    25    23    17   ar
    26    12     3   ar
    27    11     5   ar
@<TRIPOS>MOLECULE
*****
 24 27 0 0 0
SMALL
GASTEIGER

@<TRIPOS>ATOM
      1 O         141.7013  139.1623  163.7225 O.2     1  UNL1       -0.2666
      2 C         140.7977  139.3046  164.9114 C.2     1  UNL1        0.2837
      3 C         141.2506  140.0871  166.1082 C.ar    1  UNL1        0.1985
      4 N         142.5233  140.8244  166.4025 N.ar    1  UNL1       -0.2226
      5 C         142.4064  141.4224  167.7732 C.ar    1  UNL1        0.0993
      6 C         143.3508  142.2542  168.5893 C.ar    1  UNL1        0.0207
      7 C         142.9502  142.7182  169.9583 C.ar    1  UNL1        0.0021
      8 C         141.6052  142.3505  170.5112 C.ar    1  UNL1        0.0082
      9 C         140.6607  141.5187  169.6951 C.ar    1  UNL1        0.0518
     10 BR        139.3157  141.1510  170.2479 Br      1  UNL1       -0.0474
     11 C         141.0613  141.0546  168.3261 C.ar    1  UNL1        0.0853
     12 N         140.3471  140.2294  167.2971 N.ar    1  UNL1       -0.3056
     13 C         138.9906  139.5892  167.2890 C.3     1  UNL1        0.1291
     14 C         138.5377  138.8066  166.0921 C.3     1  UNL1        0.1186
     15 N         139.4413  138.6643  164.9033 N.am    1  UNL1       -0.2674
     16 C         138.9884  137.8818  163.7064 C.3     1  UNL1        0.1228
     17 C         138.8187  138.5668  162.3828 C.ar    1  UNL1        0.0252
     18 C         139.5074  138.0263  161.1648 C.ar    1  UNL1        0.0001
     19 C         139.3377  138.7113  159.8411 C.ar    1  UNL1        0.0066
     20 C         138.4792  139.9368  159.7355 C.ar    1  UNL1        0.0368
     21 BR        138.3095  140.6218  158.4119 Br      1  UNL1       -0.0489
     22 C         137.7905  140.4773  160.9536 C.ar    1  UNL1        0.0361
     23 C         137.9602  139.7923  162.2772 C.ar    1  UNL1        0.1382
     24 F         137.2715  140.3327  163.4951 F       1  UNL1       -0.2044
@<TRIPOS>BOND
     1     1     2    2
     2     2     3    1
     3     3     4   ar
     4     4     5   ar
     5     5     6   ar
     6     6     7   ar
     7     7     8   ar
     8     8     9   ar
     9     9    10    1
    10     9    11   ar
    11    11    12   ar
    12    12    13    1
    13    13    14    1
    14    14    15    1
    15    15    16    1
    16    16    17    1
    17    17    18   ar
    18    18    19   ar
    19    19    20   ar
    20    20    21    1
    21    20    22   ar
    22    22    23   ar
    23    23    24    1
    24    15     2   am
    25    23    17   ar
    26    12     3   ar
    27    11     5   ar
@<TRIPOS>MOLECULE
*****
 24 27 0 0 0
SMALL
GASTEIGER

@<TRIPOS>ATOM
      1 O         139.2832  144.9366  163.9322 O.2     1  UNL1       -0.2666
      2 C         140.3850  144.2583  163.1733 C.2     1  UNL1        0.2837
      3 C         140.5852  144.5547  161.7165 C.ar    1  UNL1        0.1985
      4 N         139.8597  145.4623  160.7679 N.ar    1  UNL1       -0.2226
      5 C         140.5130  145.3449  159.4228 C.ar    1  UNL1        0.0993
      6 C         140.2254  146.0039  158.1064 C.ar    1  UNL1        0.0207
      7 C         141.0673  145.6827  156.9072 C.ar    1  UNL1        0.0021
      8 C         142.1967  144.7026  157.0244 C.ar    1  UNL1        0.0082
      9 C         142.4843  144.0436  158.3409 C.ar    1  UNL1        0.0518
     10 BR        143.6137  143.0635  158.4581 Br      1  UNL1       -0.0474
     11 C         141.6424  144.3648  159.5400 C.ar    1  UNL1        0.0853
     12 N         141.6870  143.8764  160.9576 N.ar    1  UNL1       -0.3056
     13 C         142.5886  142.9017  161.6555 C.3     1  UNL1        0.1291
     14 C         142.3884  142.6052  163.1122 C.3     1  UNL1        0.1186
     15 N         141.2866  143.2835  163.8711 N.am    1  UNL1       -0.2674
     16 C         141.0864  142.9871  165.3278 C.3     1  UNL1        0.1228
     17 C         140.2330  141.8269  165.7467 C.ar    1  UNL1        0.0252
     18 C         139.3280  141.1636  164.7512 C.ar    1  UNL1        0.0001
     19 C         138.4745  140.0032  165.1701 C.ar    1  UNL1        0.0066
     20 C         138.5261  139.5063  166.5845 C.ar    1  UNL1        0.0368
     21 BR        137.6727  138.3460  167.0034 Br      1  UNL1       -0.0489
     22 C         139.4312  140.1696  167.5800 C.ar    1  UNL1        0.0361
     23 C         140.2846  141.3299  167.1611 C.ar    1  UNL1        0.1382
     24 F         141.1896  141.9932  168.1565 F       1  UNL1       -0.2044
@<TRIPOS>BOND
     1     1     2    2
     2     2     3    1
     3     3     4   ar
     4     4     5   ar
     5     5     6   ar
     6     6     7   ar
     7     7     8   ar
     8     8     9   ar
     9     9    10    1
    10     9    11   ar
    11    11    12   ar
    12    12    13    1
    13    13    14    1
    14    14    15    1
    15    15    16    1
    16    16    17    1
    17    17    18   ar
    18    18    19   ar
    19    19    20   ar
    20    20    21    1
    21    20    22   ar
    22    22    23   ar
    23    23    24    1
    24    15     2   am
    25    23    17   ar
    26    12     3   ar
    27    11     5   ar
@<TRIPOS>MOLECULE
*****
 24 27 0 0 0
SMALL
GASTEIGER

@<TRIPOS>ATOM
      1 O         138.3976  143.2543  160.9629 O.2     1  UNL1       -0.2666
      2 C         139.2011  143.4762  162.2100 C.2     1  UNL1        0.2837
      3 C         139.0880  142.5150  163.3560 C.ar    1  UNL1        0.1985
      4 N         138.2744  141.2690  163.5444 N.ar    1  UNL1       -0.2226
      5 C         138.5750  140.7208  164.9079 C.ar    1  UNL1        0.0993
      6 C         138.0678  139.5128  165.6382 C.ar    1  UNL1        0.0207
      7 C         138.5600  139.2120  167.0228 C.ar    1  UNL1        0.0021
      8 C         139.5594  140.1192  167.6772 C.ar    1  UNL1        0.0082
      9 C         140.0666  141.3273  166.9469 C.ar    1  UNL1        0.0518
     10 BR        141.0660  142.2345  167.6012 Br      1  UNL1       -0.0474
     11 C         139.5744  141.6281  165.5623 C.ar    1  UNL1        0.0853
     12 N         139.8914  142.7369  164.6031 N.ar    1  UNL1       -0.3056
     13 C         140.8079  143.9200  164.7042 C.3     1  UNL1        0.1291
     14 C         140.9210  144.8812  163.5582 C.3     1  UNL1        0.1186
     15 N         140.1176  144.6593  162.3111 N.am    1  UNL1       -0.2674
     16 C         140.2306  145.6206  161.1651 C.3     1  UNL1        0.1228
     17 C         140.8139  145.1663  159.8600 C.ar    1  UNL1        0.0252
     18 C         140.1854  145.5962  158.5676 C.ar    1  UNL1        0.0001
     19 C         140.7687  145.1419  157.2623 C.ar    1  UNL1        0.0066
     20 C         141.9804  144.2578  157.2496 C.ar    1  UNL1        0.0368
     21 BR        142.5637  143.8036  155.9444 Br      1  UNL1       -0.0489
     22 C         142.6089  143.8280  158.5421 C.ar    1  UNL1        0.0361
     23 C         142.0256  144.2822  159.8472 C.ar    1  UNL1        0.1382
     24 F         142.6540  143.8524  161.1396 F       1  UNL1       -0.2044
@<TRIPOS>BOND
     1     1     2    2
     2     2     3    1
     3     3     4   ar
     4     4     5   ar
     5     5     6   ar
     6     6     7   ar
     7     7     8   ar
     8     8     9   ar
     9     9    10    1
    10     9    11   ar
    11    11    12   ar
    12    12    13    1
    13    13    14    1
    14    14    15    1
    15    15    16    1
    16    16    17    1
    17    17    18   ar
    18    18    19   ar
    19    19    20   ar
    20    20    21    1
    21    20    22   ar
    22    22    23   ar
    23    23    24    1
    24    15     2   am
    25    23    17   ar
    26    12     3   ar
    27    11     5   ar
@<TRIPOS>MOLECULE
*****
 24 27 0 0 0
SMALL
GASTEIGER

@<TRIPOS>ATOM
      1 O         145.0047  139.2896  164.1102 O.2     1  UNL1       -0.2666
      2 C         143.5374  138.9782  164.1103 C.2     1  UNL1        0.2837
      3 C         142.6947  139.3362  165.2985 C.ar    1  UNL1        0.1985
      4 N         143.0284  139.9966  166.6033 N.ar    1  UNL1       -0.2226
      5 C         141.7673  140.0933  167.4098 C.ar    1  UNL1        0.0993
      6 C         141.4888  140.6507  168.7742 C.ar    1  UNL1        0.0207
      7 C         140.0972  140.6075  169.3322 C.ar    1  UNL1        0.0021
      8 C         138.9841  140.0069  168.5259 C.ar    1  UNL1        0.0082
      9 C         139.2626  139.4495  167.1614 C.ar    1  UNL1        0.0518
     10 BR        138.1495  138.8488  166.3551 Br      1  UNL1       -0.0474
     11 C         140.6542  139.4927  166.6034 C.ar    1  UNL1        0.0853
     12 N         141.2274  139.0248  165.2986 N.ar    1  UNL1       -0.3056
     13 C         140.6027  138.3553  164.1105 C.3     1  UNL1        0.1291
     14 C         141.4454  137.9973  162.9223 C.3     1  UNL1        0.1186
     15 N         142.9127  138.3087  162.9222 N.am    1  UNL1       -0.2674
     16 C         143.7554  137.9507  161.7340 C.3     1  UNL1        0.1228
     17 C         143.4687  138.5687  160.3976 C.ar    1  UNL1        0.0252
     18 C         142.8069  137.7582  159.3229 C.ar    1  UNL1        0.0001
     19 C         142.5202  138.3762  157.9865 C.ar    1  UNL1        0.0066
     20 C         142.8953  139.8048  157.7249 C.ar    1  UNL1        0.0368
     21 BR        142.6087  140.4228  156.3885 Br      1  UNL1       -0.0489
     22 C         143.5571  140.6154  158.7997 C.ar    1  UNL1        0.0361
     23 C         143.8438  139.9974  160.1360 C.ar    1  UNL1        0.1382
     24 F         144.5055  140.8078  161.2107 F       1  UNL1       -0.2044
@<TRIPOS>BOND
     1     1     2    2
     2     2     3    1
     3     3     4   ar
     4     4     5   ar
     5     5     6   ar
     6     6     7   ar
     7     7     8   ar
     8     8     9   ar
     9     9    10    1
    10     9    11   ar
    11    11    12   ar
    12    12    13    1
    13    13    14    1
    14    14    15    1
    15    15    16    1
    16    16    17    1
    17    17    18   ar
    18    18    19   ar
    19    19    20   ar
    20    20    21    1
    21    20    22   ar
    22    22    23   ar
    23    23    24    1
    24    15     2   am
    25    23    17   ar
    26    12     3   ar
    27    11     5   ar
@<TRIPOS>MOLECULE
*****
 24 27 0 0 0
SMALL
GASTEIGER

@<TRIPOS>ATOM
      1 O         137.9466  144.6403  162.6673 O.2     1  UNL1       -0.2666
      2 C         138.7804  143.5823  162.0074 C.2     1  UNL1        0.2837
      3 C         139.6037  143.9207  160.8000 C.ar    1  UNL1        0.1985
      4 N         139.7923  145.2003  160.0403 N.ar    1  UNL1       -0.2226
      5 C         140.7426  144.9331  158.9109 C.ar    1  UNL1        0.0993
      6 C         141.2964  145.8186  157.8343 C.ar    1  UNL1        0.0207
      7 C         142.2489  145.2595  156.8195 C.ar    1  UNL1        0.0021
      8 C         142.6476  143.8148  156.8812 C.ar    1  UNL1        0.0082
      9 C         142.0938  142.9292  157.9578 C.ar    1  UNL1        0.0518
     10 BR        142.4926  141.4845  158.0195 Br      1  UNL1       -0.0474
     11 C         141.1413  143.4884  158.9726 C.ar    1  UNL1        0.0853
     12 N         140.4374  142.8627  160.1402 N.ar    1  UNL1       -0.3056
     13 C         140.4480  141.4663  160.6877 C.3     1  UNL1        0.1291
     14 C         139.6247  141.1278  161.8951 C.3     1  UNL1        0.1186
     15 N         138.7910  142.1858  162.5549 N.am    1  UNL1       -0.2674
     16 C         137.9677  141.8474  163.7623 C.3     1  UNL1        0.1228
     17 C         138.6396  141.4029  165.0276 C.ar    1  UNL1        0.0252
     18 C         138.3679  140.0352  165.5804 C.ar    1  UNL1        0.0001
     19 C         139.0398  139.5906  166.8458 C.ar    1  UNL1        0.0066
     20 C         139.9834  140.5137  167.5582 C.ar    1  UNL1        0.0368
     21 BR        140.6553  140.0692  168.8235 Br      1  UNL1       -0.0489
     22 C         140.2550  141.8815  167.0053 C.ar    1  UNL1        0.0361
     23 C         139.5831  142.3260  165.7401 C.ar    1  UNL1        0.1382
     24 F         139.8547  143.6936  165.1872 F       1  UNL1       -0.2044
@<TRIPOS>BOND
     1     1     2    2
     2     2     3    1
     3     3     4   ar
     4     4     5   ar
     5     5     6   ar
     6     6     7   ar
     7     7     8   ar
     8     8     9   ar
     9     9    10    1
    10     9    11   ar
    11    11    12   ar
    12    12    13    1
    13    13    14    1
    14    14    15    1
    15    15    16    1
    16    16    17    1
    17    17    18   ar
    18    18    19   ar
    19    19    20   ar
    20    20    21    1
    21    20    22   ar
    22    22    23   ar
    23    23    24    1
    24    15     2   am
    25    23    17   ar
    26    12     3   ar
    27    11     5   ar
@<TRIPOS>MOLECULE
*****
 24 27 0 0 0
SMALL
GASTEIGER

@<TRIPOS>ATOM
      1 O         139.0984  138.9608  163.2051 O.2     1  UNL1       -0.2666
      2 C         139.2169  140.4362  163.4479 C.2     1  UNL1        0.2837
      3 C         139.4591  141.3685  162.2980 C.ar    1  UNL1        0.1985
      4 N         139.6233  141.1263  160.8268 N.ar    1  UNL1       -0.2226
      5 C         139.8434  142.4520  160.1605 C.ar    1  UNL1        0.0993
      6 C         140.0658  142.8297  158.7259 C.ar    1  UNL1        0.0207
      7 C         140.2600  144.2689  158.3508 C.ar    1  UNL1        0.0021
      8 C         140.2318  145.3305  159.4101 C.ar    1  UNL1        0.0082
      9 C         140.0094  144.9529  160.8446 C.ar    1  UNL1        0.0518
     10 BR        139.9812  146.0145  161.9039 Br      1  UNL1       -0.0474
     11 C         139.8152  143.5136  161.2198 C.ar    1  UNL1        0.0853
     12 N         139.5777  142.8440  162.5409 N.ar    1  UNL1       -0.3056
     13 C         139.4541  143.3871  163.9336 C.3     1  UNL1        0.1291
     14 C         139.2119  142.4548  165.0834 C.3     1  UNL1        0.1186
     15 N         139.0933  140.9794  164.8406 N.am    1  UNL1       -0.2674
     16 C         138.8511  140.0471  165.9905 C.3     1  UNL1        0.1228
     17 C         139.8410  139.9700  167.1148 C.ar    1  UNL1        0.0252
     18 C         139.3861  140.1728  168.5297 C.ar    1  UNL1        0.0001
     19 C         140.3760  140.0958  169.6542 C.ar    1  UNL1        0.0066
     20 C         141.8208  139.8158  169.3636 C.ar    1  UNL1        0.0368
     21 BR        142.8106  139.7388  170.4880 Br      1  UNL1       -0.0489
     22 C         142.2756  139.6130  167.9486 C.ar    1  UNL1        0.0361
     23 C         141.2858  139.6901  166.8243 C.ar    1  UNL1        0.1382
     24 F         141.7405  139.4873  165.4094 F       1  UNL1       -0.2044
@<TRIPOS>BOND
     1     1     2    2
     2     2     3    1
     3     3     4   ar
     4     4     5   ar
     5     5     6   ar
     6     6     7   ar
     7     7     8   ar
     8     8     9   ar
     9     9    10    1
    10     9    11   ar
    11    11    12   ar
    12    12    13    1
    13    13    14    1
    14    14    15    1
    15    15    16    1
    16    16    17    1
    17    17    18   ar
    18    18    19   ar
    19    19    20   ar
    20    20    21    1
    21    20    22   ar
    22    22    23   ar
    23    23    24    1
    24    15     2   am
    25    23    17   ar
    26    12     3   ar
    27    11     5   ar
@<TRIPOS>MOLECULE
*****
 24 27 0 0 0
SMALL
GASTEIGER

@<TRIPOS>ATOM
      1 O         145.1902  139.3910  164.6146 O.2     1  UNL1       -0.2666
      2 C         143.7635  139.0672  164.2833 C.2     1  UNL1        0.2837
      3 C         143.3066  139.0680  162.8546 C.ar    1  UNL1        0.1985
      4 N         144.0289  139.3467  161.5699 N.ar    1  UNL1       -0.2226
      5 C         143.0487  139.1952  160.4446 C.ar    1  UNL1        0.0993
      6 C         143.1940  139.3482  158.9595 C.ar    1  UNL1        0.0207
      7 C         142.0111  139.1288  158.0637 C.ar    1  UNL1        0.0021
      8 C         140.6829  138.7564  158.6529 C.ar    1  UNL1        0.0082
      9 C         140.5376  138.6034  160.1380 C.ar    1  UNL1        0.0518
     10 BR        139.2094  138.2310  160.7272 Br      1  UNL1       -0.0474
     11 C         141.7205  138.8228  161.0338 C.ar    1  UNL1        0.0853
     12 N         141.8799  138.7442  162.5233 N.ar    1  UNL1       -0.3056
     13 C         140.9102  138.4196  163.6207 C.3     1  UNL1        0.1291
     14 C         141.3672  138.4188  165.0494 C.3     1  UNL1        0.1186
     15 N         142.7938  138.7426  165.3807 N.am    1  UNL1       -0.2674
     16 C         143.2508  138.7418  166.8094 C.3     1  UNL1        0.1228
     17 C         142.5715  139.6239  167.8146 C.ar    1  UNL1        0.0252
     18 C         142.0005  140.9442  167.3893 C.ar    1  UNL1        0.0001
     19 C         141.3212  141.8263  168.3945 C.ar    1  UNL1        0.0066
     20 C         141.2129  141.3882  169.8250 C.ar    1  UNL1        0.0368
     21 BR        140.5336  142.2703  170.8302 Br      1  UNL1       -0.0489
     22 C         141.7839  140.0678  170.2503 C.ar    1  UNL1        0.0361
     23 C         142.4632  139.1858  169.2451 C.ar    1  UNL1        0.1382
     24 F         143.0342  137.8655  169.6703 F       1  UNL1       -0.2044
@<TRIPOS>BOND
     1     1     2    2
     2     2     3    1
     3     3     4   ar
     4     4     5   ar
     5     5     6   ar
     6     6     7   ar
     7     7     8   ar
     8     8     9   ar
     9     9    10    1
    10     9    11   ar
    11    11    12   ar
    12    12    13    1
    13    13    14    1
    14    14    15    1
    15    15    16    1
    16    16    17    1
    17    17    18   ar
    18    18    19   ar
    19    19    20   ar
    20    20    21    1
    21    20    22   ar
    22    22    23   ar
    23    23    24    1
    24    15     2   am
    25    23    17   ar
    26    12     3   ar
    27    11     5   ar
@<TRIPOS>MOLECULE
*****
 24 27 0 0 0
SMALL
GASTEIGER

@<TRIPOS>ATOM
      1 O         138.8718  145.8734  162.1260 O.2     1  UNL1       -0.2666
      2 C         139.9935  144.9984  161.6505 C.2     1  UNL1        0.2837
      3 C         140.4197  145.0401  160.2129 C.ar    1  UNL1        0.1985
      4 N         139.9252  145.8368  159.0422 N.ar    1  UNL1       -0.2226
      5 C         140.7412  145.4542  157.8432 C.ar    1  UNL1        0.0993
      6 C         140.7038  145.9131  156.4156 C.ar    1  UNL1        0.0207
      7 C         141.6652  145.3388  155.4178 C.ar    1  UNL1        0.0021
      8 C         142.6642  144.3056  155.8475 C.ar    1  UNL1        0.0082
      9 C         142.7016  143.8467  157.2751 C.ar    1  UNL1        0.0518
     10 BR        143.7005  142.8135  157.7048 Br      1  UNL1       -0.0474
     11 C         141.7401  144.4210  158.2729 C.ar    1  UNL1        0.0853
     12 N         141.5414  144.1651  159.7375 N.ar    1  UNL1       -0.3056
     13 C         142.2369  143.2483  160.6996 C.3     1  UNL1        0.1291
     14 C         141.8108  143.2066  162.1372 C.3     1  UNL1        0.1186
     15 N         140.6891  144.0816  162.6127 N.am    1  UNL1       -0.2674
     16 C         140.2629  144.0399  164.0503 C.3     1  UNL1        0.1228
     17 C         139.7495  142.7615  164.6435 C.ar    1  UNL1        0.0252
     18 C         140.4639  142.1326  165.8029 C.ar    1  UNL1        0.0001
     19 C         139.9504  140.8541  166.3961 C.ar    1  UNL1        0.0066
     20 C         138.7225  140.2046  165.8301 C.ar    1  UNL1        0.0368
     21 BR        138.2091  138.9261  166.4233 Br      1  UNL1       -0.0489
     22 C         138.0081  140.8335  164.6707 C.ar    1  UNL1        0.0361
     23 C         138.5216  142.1120  164.0774 C.ar    1  UNL1        0.1382
     24 F         137.8072  142.7409  162.9181 F       1  UNL1       -0.2044
@<TRIPOS>BOND
     1     1     2    2
     2     2     3    1
     3     3     4   ar
     4     4     5   ar
     5     5     6   ar
     6     6     7   ar
     7     7     8   ar
     8     8     9   ar
     9     9    10    1
    10     9    11   ar
    11    11    12   ar
    12    12    13    1
    13    13    14    1
    14    14    15    1
    15    15    16    1
    16    16    17    1
    17    17    18   ar
    18    18    19   ar
    19    19    20   ar
    20    20    21    1
    21    20    22   ar
    22    22    23   ar
    23    23    24    1
    24    15     2   am
    25    23    17   ar
    26    12     3   ar
    27    11     5   ar
