@<TRIPOS>MOLECULE
*****
 44 51 0 0 0
SMALL
GASTEIGER

@<TRIPOS>ATOM
      1 C         141.7410  141.2616  163.2071 C.ar    1  UNL1        0.0176
      2 C         140.6555  140.6727  162.3557 C.ar    1  UNL1        0.0012
      3 C         140.8499  140.5465  160.8737 C.ar    1  UNL1       -0.0029
      4 C         142.1299  141.0092  160.2431 C.ar    1  UNL1       -0.0061
      5 C         143.2154  141.5980  161.0945 C.ar    1  UNL1       -0.0029
      6 C         143.0209  141.7242  162.5765 C.ar    1  UNL1        0.0012
      7 C         140.7666  142.5409  165.2476 C.ar    1  UNL1        0.0178
      8 C         140.5721  142.6671  166.7296 C.ar    1  UNL1        0.0061
      9 C         141.1576  141.6402  167.6530 C.ar    1  UNL1        0.0540
     10 C         141.9375  140.4871  167.0945 C.ar    1  UNL1        0.0857
     11 C         142.5229  139.4602  168.0179 C.ar    1  UNL1        0.0383
     12 C         142.3284  139.5864  169.4999 C.ar    1  UNL1        0.0845
     13 N         141.5485  140.7395  170.0584 N.ar    1  UNL1       -0.2699
     14 C         141.1944  141.1246  171.4642 C.ar    1  UNL1        0.2069
     15 N         140.3900  142.3895  171.4096 N.ar    1  UNL1       -0.1252
     16 N         140.2471  142.7862  169.9701 N.ar    1  UNL1       -0.1283
     17 C         140.9630  141.7664  169.1350 C.ar    1  UNL1        0.1718
     18 N         142.1320  140.3609  165.6125 N.ar    1  UNL1       -0.2452
     19 C         141.5466  141.3877  164.6891 C.ar    1  UNL1        0.0812
     20 C         139.0100  145.6216  162.4775 C.ar    1  UNL1        0.0000
     21 C         138.1399  144.5385  163.0431 C.ar    1  UNL1        0.0000
     22 C         138.7255  143.5116  163.9664 C.ar    1  UNL1        0.0000
     23 C         140.1811  143.5678  164.3242 C.ar    1  UNL1        0.0015
     24 C         141.0511  144.6509  163.7587 C.ar    1  UNL1        0.0000
     25 C         140.4656  145.6778  162.8354 C.ar    1  UNL1        0.0000
     26 C         142.3243  140.8830  158.7611 C.3     1  UNL1        0.0991
     27 N         142.2266  139.5383  158.1037 N.3     1  UNL1       -0.2689
     28 C         142.8961  138.3490  158.7257 C.3     1  UNL1        0.0728
     29 C         142.7984  137.0042  158.0683 C.3     1  UNL1        0.0249
     30 C         142.0311  136.8490  156.7888 C.3     1  UNL1        0.0613
     31 C         141.3615  138.0384  156.1668 C.3     1  UNL1        0.0249
     32 C         141.4592  139.3831  156.8242 C.3     1  UNL1        0.0728
     33 C         141.9333  135.5042  156.1314 C.ar    1  UNL1        0.1396
     34 N         141.0362  135.1471  154.9835 N.ar    1  UNL1       -0.1335
     35 N         141.2640  133.7028  154.6491 N.ar    1  UNL1       -0.1277
     36 C         142.3018  133.1672  155.5903 C.ar    1  UNL1        0.1807
     37 N         142.7155  134.2805  156.5064 N.ar    1  UNL1       -0.3234
     38 H         143.3832  134.2188  157.2273 H       1  UNL1        0.1686
     39 C         142.8328  131.7644  155.6117 C.ar    1  UNL1        0.1169
     40 C         144.3130  131.5231  155.6398 C.ar    1  UNL1        0.0223
     41 C         144.8439  130.1204  155.6612 C.ar    1  UNL1        0.0032
     42 C         143.8947  128.9590  155.6544 C.ar    1  UNL1        0.0207
     43 C         142.4145  129.2002  155.6263 C.ar    1  UNL1        0.0989
     44 N         141.8835  130.6030  155.6049 N.ar    1  UNL1       -0.2407
@<TRIPOS>BOND
     1    20    21   ar
     2    21    22   ar
     3    22    23   ar
     4    23     7    1
     5     7     8   ar
     6     8     9   ar
     7     9    10   ar
     8    10    11   ar
     9    11    12   ar
    10    12    13   ar
    11    13    14   ar
    12    14    15   ar
    13    15    16   ar
    14    16    17   ar
    15    10    18   ar
    16    18    19   ar
    17    19     1    1
    18     1     2   ar
    19     2     3   ar
    20     3     4   ar
    21     4    26    1
    22    26    27    1
    23    27    28    1
    24    28    29    1
    25    29    30    1
    26    30    33    1
    27    33    34   ar
    28    34    35   ar
    29    35    36   ar
    30    36    39    1
    31    39    40   ar
    32    40    41   ar
    33    41    42   ar
    34    42    43   ar
    35    43    44   ar
    36    36    37   ar
    37    30    31    1
    38    31    32    1
    39     4     5   ar
    40     5     6   ar
    41    23    24   ar
    42    24    25   ar
    43    25    20   ar
    44    19     7   ar
    45     6     1   ar
    46    17     9   ar
    47    32    27    1
    48    17    13   ar
    49    37    33   ar
    50    44    39   ar
    51    37    38    1
@<TRIPOS>MOLECULE
*****
 44 51 0 0 0
SMALL
GASTEIGER

@<TRIPOS>ATOM
      1 C         141.7511  141.1894  163.2958 C.ar    1  UNL1        0.0176
      2 C         143.0834  141.5076  162.6846 C.ar    1  UNL1        0.0012
      3 C         143.2903  141.3412  161.2083 C.ar    1  UNL1       -0.0029
      4 C         142.1649  140.8565  160.3432 C.ar    1  UNL1       -0.0061
      5 C         140.8325  140.5382  160.9544 C.ar    1  UNL1       -0.0029
      6 C         140.6257  140.7047  162.4307 C.ar    1  UNL1        0.0012
      7 C         140.7922  142.5438  165.2948 C.ar    1  UNL1        0.0178
      8 C         140.5853  142.7103  166.7711 C.ar    1  UNL1        0.0061
      9 C         141.1305  141.6889  167.7248 C.ar    1  UNL1        0.0540
     10 C         141.8825  140.5009  167.2021 C.ar    1  UNL1        0.0857
     11 C         142.4277  139.4795  168.1557 C.ar    1  UNL1        0.0383
     12 C         142.2208  139.6460  169.6321 C.ar    1  UNL1        0.0845
     13 N         141.4688  140.8339  170.1547 N.ar    1  UNL1       -0.2699
     14 C         141.1107  141.2620  171.5470 C.ar    1  UNL1        0.2069
     15 N         140.3443  142.5480  171.4539 N.ar    1  UNL1       -0.1252
     16 N         140.2286  142.9148  170.0040 N.ar    1  UNL1       -0.1283
     17 C         140.9236  141.8554  169.2011 C.ar    1  UNL1        0.1718
     18 N         142.0894  140.3344  165.7258 N.ar    1  UNL1       -0.2452
     19 C         141.5442  141.3558  164.7722 C.ar    1  UNL1        0.0812
     20 C         139.1568  145.6084  162.4340 C.ar    1  UNL1        0.0000
     21 C         140.6155  145.6117  162.7834 C.ar    1  UNL1        0.0000
     22 C         141.1606  144.5901  163.7370 C.ar    1  UNL1        0.0000
     23 C         140.2470  143.5653  164.3412 C.ar    1  UNL1        0.0015
     24 C         138.7883  143.5620  163.9918 C.ar    1  UNL1        0.0000
     25 C         138.2432  144.5835  163.0383 C.ar    1  UNL1        0.0000
     26 C         142.3718  140.6900  158.8669 C.3     1  UNL1        0.0991
     27 N         142.4140  139.3165  158.2657 N.3     1  UNL1       -0.2689
     28 C         142.8309  138.1438  159.1028 C.3     1  UNL1        0.0728
     29 C         142.8732  136.7703  158.5016 C.3     1  UNL1        0.0249
     30 C         142.4984  136.5694  157.0631 C.3     1  UNL1        0.0613
     31 C         142.0814  137.7421  156.2259 C.3     1  UNL1        0.0249
     32 C         142.0392  139.1156  156.8271 C.3     1  UNL1        0.0728
     33 C         142.5406  135.1957  156.4618 C.ar    1  UNL1        0.1396
     34 N         143.6511  134.1993  156.6165 N.ar    1  UNL1       -0.1335
     35 N         143.2765  132.9652  155.8506 N.ar    1  UNL1       -0.1277
     36 C         141.9346  133.1989  155.2226 C.ar    1  UNL1        0.1807
     37 N         141.4797  134.5774  155.6003 N.ar    1  UNL1       -0.3234
     38 H         140.6335  135.0019  155.3302 H       1  UNL1        0.1686
     39 C         141.1799  132.2250  154.3670 C.ar    1  UNL1        0.1169
     40 C         140.8041  130.8801  154.9146 C.ar    1  UNL1        0.0223
     41 C         140.0494  129.9062  154.0590 C.ar    1  UNL1        0.0032
     42 C         139.6707  130.2772  152.6559 C.ar    1  UNL1        0.0207
     43 C         140.0464  131.6221  152.1082 C.ar    1  UNL1        0.0989
     44 N         140.8011  132.5961  152.9638 N.ar    1  UNL1       -0.2407
@<TRIPOS>BOND
     1    20    21   ar
     2    21    22   ar
     3    22    23   ar
     4    23     7    1
     5     7     8   ar
     6     8     9   ar
     7     9    10   ar
     8    10    11   ar
     9    11    12   ar
    10    12    13   ar
    11    13    14   ar
    12    14    15   ar
    13    15    16   ar
    14    16    17   ar
    15    10    18   ar
    16    18    19   ar
    17    19     1    1
    18     1     2   ar
    19     2     3   ar
    20     3     4   ar
    21     4    26    1
    22    26    27    1
    23    27    28    1
    24    28    29    1
    25    29    30    1
    26    30    33    1
    27    33    34   ar
    28    34    35   ar
    29    35    36   ar
    30    36    39    1
    31    39    40   ar
    32    40    41   ar
    33    41    42   ar
    34    42    43   ar
    35    43    44   ar
    36    36    37   ar
    37    30    31    1
    38    31    32    1
    39     4     5   ar
    40     5     6   ar
    41    23    24   ar
    42    24    25   ar
    43    25    20   ar
    44    19     7   ar
    45     6     1   ar
    46    17     9   ar
    47    32    27    1
    48    17    13   ar
    49    37    33   ar
    50    44    39   ar
    51    37    38    1
@<TRIPOS>MOLECULE
*****
 44 51 0 0 0
SMALL
GASTEIGER

@<TRIPOS>ATOM
      1 C         141.7214  141.2493  163.2825 C.ar    1  UNL1        0.0176
      2 C         142.9418  141.8334  162.6348 C.ar    1  UNL1        0.0012
      3 C         143.1305  141.7197  161.1511 C.ar    1  UNL1       -0.0029
      4 C         142.0989  141.0220  160.3150 C.ar    1  UNL1       -0.0061
      5 C         140.8786  140.4379  160.9627 C.ar    1  UNL1       -0.0029
      6 C         140.6899  140.5516  162.4465 C.ar    1  UNL1        0.0012
      7 C         140.7082  142.4801  165.3339 C.ar    1  UNL1        0.0178
      8 C         140.5195  142.5938  166.8176 C.ar    1  UNL1        0.0061
      9 C         141.1552  141.5905  167.7337 C.ar    1  UNL1        0.0540
     10 C         141.9798  140.4734  167.1660 C.ar    1  UNL1        0.0857
     11 C         142.6155  139.4701  168.0820 C.ar    1  UNL1        0.0383
     12 C         142.4268  139.5838  169.5658 C.ar    1  UNL1        0.0845
     13 N         141.6023  140.7009  170.1334 N.ar    1  UNL1       -0.2699
     14 C         141.2424  141.0667  171.5429 C.ar    1  UNL1        0.2069
     15 N         140.3842  142.2961  171.4980 N.ar    1  UNL1       -0.1252
     16 N         140.2137  142.6901  170.0608 N.ar    1  UNL1       -0.1283
     17 C         140.9665  141.7042  169.2174 C.ar    1  UNL1        0.1718
     18 N         142.1685  140.3597  165.6822 N.ar    1  UNL1       -0.2452
     19 C         141.5327  141.3630  164.7663 C.ar    1  UNL1        0.0812
     20 C         138.8005  145.4901  162.5860 C.ar    1  UNL1        0.0000
     21 C         137.9781  144.3788  163.1679 C.ar    1  UNL1        0.0000
     22 C         138.6140  143.3754  164.0838 C.ar    1  UNL1        0.0000
     23 C         140.0724  143.4835  164.4180 C.ar    1  UNL1        0.0015
     24 C         140.8947  144.5948  163.8361 C.ar    1  UNL1        0.0000
     25 C         140.2589  145.5981  162.9202 C.ar    1  UNL1        0.0000
     26 C         142.2877  140.9083  158.8313 C.3     1  UNL1        0.0991
     27 N         141.9600  142.0712  157.9423 N.3     1  UNL1       -0.2689
     28 C         140.5806  142.6602  157.9559 C.3     1  UNL1        0.0728
     29 C         140.2529  143.8231  157.0669 C.3     1  UNL1        0.0249
     30 C         141.3046  144.3969  156.1644 C.3     1  UNL1        0.0613
     31 C         142.6841  143.8079  156.1508 C.3     1  UNL1        0.0249
     32 C         143.0118  142.6450  157.0398 C.3     1  UNL1        0.0728
     33 C         140.9769  145.5599  155.2753 C.ar    1  UNL1        0.1396
     34 N         141.1609  145.6116  153.7876 N.ar    1  UNL1       -0.1335
     35 N         140.7054  146.9589  153.3108 N.ar    1  UNL1       -0.1277
     36 C         140.2398  147.7397  154.5039 C.ar    1  UNL1        0.1807
     37 N         140.4076  146.8751  155.7180 N.ar    1  UNL1       -0.3234
     38 H         140.1834  147.1267  156.6430 H       1  UNL1        0.1686
     39 C         139.7010  149.1395  154.4859 C.ar    1  UNL1        0.1169
     40 C         139.9064  150.0068  153.2794 C.ar    1  UNL1        0.0223
     41 C         139.3676  151.4066  153.2615 C.ar    1  UNL1        0.0032
     42 C         138.6235  151.9390  154.4500 C.ar    1  UNL1        0.0207
     43 C         138.4181  151.0719  155.6565 C.ar    1  UNL1        0.0989
     44 N         138.9568  149.6720  155.6745 N.ar    1  UNL1       -0.2407
@<TRIPOS>BOND
     1    20    21   ar
     2    21    22   ar
     3    22    23   ar
     4    23     7    1
     5     7     8   ar
     6     8     9   ar
     7     9    10   ar
     8    10    11   ar
     9    11    12   ar
    10    12    13   ar
    11    13    14   ar
    12    14    15   ar
    13    15    16   ar
    14    16    17   ar
    15    10    18   ar
    16    18    19   ar
    17    19     1    1
    18     1     2   ar
    19     2     3   ar
    20     3     4   ar
    21     4    26    1
    22    26    27    1
    23    27    28    1
    24    28    29    1
    25    29    30    1
    26    30    33    1
    27    33    34   ar
    28    34    35   ar
    29    35    36   ar
    30    36    39    1
    31    39    40   ar
    32    40    41   ar
    33    41    42   ar
    34    42    43   ar
    35    43    44   ar
    36    36    37   ar
    37    30    31    1
    38    31    32    1
    39     4     5   ar
    40     5     6   ar
    41    23    24   ar
    42    24    25   ar
    43    25    20   ar
    44    19     7   ar
    45     6     1   ar
    46    17     9   ar
    47    32    27    1
    48    17    13   ar
    49    37    33   ar
    50    44    39   ar
    51    37    38    1
@<TRIPOS>MOLECULE
*****
 44 51 0 0 0
SMALL
GASTEIGER

@<TRIPOS>ATOM
      1 C         142.5320  140.9201  163.1793 C.ar    1  UNL1        0.0176
      2 C         141.8519  141.7743  162.1509 C.ar    1  UNL1        0.0012
      3 C         142.2861  141.7102  160.7166 C.ar    1  UNL1       -0.0029
      4 C         143.4005  140.7917  160.3107 C.ar    1  UNL1       -0.0061
      5 C         144.0806  139.9375  161.3391 C.ar    1  UNL1       -0.0029
      6 C         143.6463  140.0017  162.7735 C.ar    1  UNL1        0.0012
      7 C         140.7905  140.3773  165.0293 C.ar    1  UNL1        0.0178
      8 C         140.3562  140.4415  166.4636 C.ar    1  UNL1        0.0061
      9 C         141.2291  141.1126  167.4823 C.ar    1  UNL1        0.0540
     10 C         142.5363  141.7196  167.0667 C.ar    1  UNL1        0.0857
     11 C         143.4091  142.3907  168.0852 C.ar    1  UNL1        0.0383
     12 C         142.9748  142.4549  169.5196 C.ar    1  UNL1        0.0845
     13 N         141.6676  141.8479  169.9353 N.ar    1  UNL1       -0.2699
     14 C         140.9811  141.7573  171.2659 C.ar    1  UNL1        0.2069
     15 N         139.6839  141.0302  171.0695 N.ar    1  UNL1       -0.1252
     16 N         139.5687  140.6714  169.6176 N.ar    1  UNL1       -0.1283
     17 C         140.7947  141.1768  168.9166 C.ar    1  UNL1        0.1718
     18 N         142.9706  141.6554  165.6323 N.ar    1  UNL1       -0.2452
     19 C         142.0977  140.9843  164.6137 C.ar    1  UNL1        0.0812
     20 C         138.1715  138.3640  161.9735 C.ar    1  UNL1        0.0000
     21 C         137.8990  139.7829  162.3768 C.ar    1  UNL1        0.0000
     22 C         138.7720  140.4539  163.3954 C.ar    1  UNL1        0.0000
     23 C         139.9175  139.7062  164.0107 C.ar    1  UNL1        0.0015
     24 C         140.1900  138.2873  163.6074 C.ar    1  UNL1        0.0000
     25 C         139.3171  137.6163  162.5889 C.ar    1  UNL1        0.0000
     26 C         143.8347  140.7276  158.8763 C.3     1  UNL1        0.0991
     27 N         143.5268  139.5120  158.0532 N.3     1  UNL1       -0.2689
     28 C         143.8702  139.4881  156.5933 C.3     1  UNL1        0.0728
     29 C         143.5624  138.2725  155.7702 C.3     1  UNL1        0.0249
     30 C         142.9111  137.0808  156.4070 C.3     1  UNL1        0.0613
     31 C         142.5677  137.1046  157.8670 C.3     1  UNL1        0.0249
     32 C         142.8755  138.3202  158.6901 C.3     1  UNL1        0.0728
     33 C         142.6032  135.8651  155.5839 C.ar    1  UNL1        0.1396
     34 N         142.4669  135.8228  154.0907 N.ar    1  UNL1       -0.1335
     35 N         142.1571  134.4100  153.6934 N.ar    1  UNL1       -0.1277
     36 C         142.1019  133.5791  154.9411 C.ar    1  UNL1        0.1807
     37 N         142.3777  134.4784  156.1094 N.ar    1  UNL1       -0.3234
     38 H         142.4057  134.2063  157.0552 H       1  UNL1        0.1686
     39 C         141.8205  132.1073  155.0085 C.ar    1  UNL1        0.1169
     40 C         140.6796  131.5254  154.2276 C.ar    1  UNL1        0.0223
     41 C         140.3982  130.0536  154.2950 C.ar    1  UNL1        0.0032
     42 C         141.2575  129.1637  155.1433 C.ar    1  UNL1        0.0207
     43 C         142.3984  129.7456  155.9242 C.ar    1  UNL1        0.0989
     44 N         142.6799  131.2174  155.8569 N.ar    1  UNL1       -0.2407
@<TRIPOS>BOND
     1    20    21   ar
     2    21    22   ar
     3    22    23   ar
     4    23     7    1
     5     7     8   ar
     6     8     9   ar
     7     9    10   ar
     8    10    11   ar
     9    11    12   ar
    10    12    13   ar
    11    13    14   ar
    12    14    15   ar
    13    15    16   ar
    14    16    17   ar
    15    10    18   ar
    16    18    19   ar
    17    19     1    1
    18     1     2   ar
    19     2     3   ar
    20     3     4   ar
    21     4    26    1
    22    26    27    1
    23    27    28    1
    24    28    29    1
    25    29    30    1
    26    30    33    1
    27    33    34   ar
    28    34    35   ar
    29    35    36   ar
    30    36    39    1
    31    39    40   ar
    32    40    41   ar
    33    41    42   ar
    34    42    43   ar
    35    43    44   ar
    36    36    37   ar
    37    30    31    1
    38    31    32    1
    39     4     5   ar
    40     5     6   ar
    41    23    24   ar
    42    24    25   ar
    43    25    20   ar
    44    19     7   ar
    45     6     1   ar
    46    17     9   ar
    47    32    27    1
    48    17    13   ar
    49    37    33   ar
    50    44    39   ar
    51    37    38    1
@<TRIPOS>MOLECULE
*****
 44 51 0 0 0
SMALL
GASTEIGER

@<TRIPOS>ATOM
      1 C         141.0027  140.5191  163.4797 C.ar    1  UNL1        0.0176
      2 C         140.0076  139.5608  162.8954 C.ar    1  UNL1        0.0012
      3 C         139.9888  139.3080  161.4170 C.ar    1  UNL1       -0.0029
      4 C         140.9650  140.0134  160.5229 C.ar    1  UNL1       -0.0061
      5 C         141.9601  140.9716  161.1073 C.ar    1  UNL1       -0.0029
      6 C         141.9789  141.2245  162.5858 C.ar    1  UNL1        0.0012
      7 C         140.3297  141.9777  165.5217 C.ar    1  UNL1        0.0178
      8 C         140.3485  142.2305  167.0001 C.ar    1  UNL1        0.0061
      9 C         141.0591  141.2776  167.9150 C.ar    1  UNL1        0.0540
     10 C         141.7509  140.0719  167.3516 C.ar    1  UNL1        0.0857
     11 C         142.4614  139.1190  168.2664 C.ar    1  UNL1        0.0383
     12 C         142.4802  139.3719  169.7449 C.ar    1  UNL1        0.0845
     13 N         141.7884  140.5776  170.3084 N.ar    1  UNL1       -0.2699
     14 C         141.6385  141.0840  171.7123 C.ar    1  UNL1        0.2069
     15 N         140.8352  142.3499  171.6650 N.ar    1  UNL1       -0.1252
     16 N         140.4887  142.6259  170.2319 N.ar    1  UNL1       -0.1283
     17 C         141.0779  141.5305  169.3934 C.ar    1  UNL1        0.1718
     18 N         141.7321  139.8191  165.8731 N.ar    1  UNL1       -0.2452
     19 C         141.0216  140.7719  164.9582 C.ar    1  UNL1        0.0812
     20 C         138.1981  144.8366  162.7771 C.ar    1  UNL1        0.0000
     21 C         139.6101  145.1147  163.1998 C.ar    1  UNL1        0.0000
     22 C         140.3207  144.1617  164.1147 C.ar    1  UNL1        0.0000
     23 C         139.6191  142.9306  164.6068 C.ar    1  UNL1        0.0015
     24 C         138.2071  142.6525  164.1841 C.ar    1  UNL1        0.0000
     25 C         137.4966  143.6054  163.2693 C.ar    1  UNL1        0.0000
     26 C         140.9462  139.7605  159.0445 C.3     1  UNL1        0.0991
     27 N         141.9926  140.3777  158.1647 N.3     1  UNL1       -0.2689
     28 C         143.2768  139.6485  157.9019 C.3     1  UNL1        0.0728
     29 C         144.3232  140.2657  157.0221 C.3     1  UNL1        0.0249
     30 C         144.0854  141.6120  156.4051 C.3     1  UNL1        0.0613
     31 C         142.8012  142.3412  156.6678 C.3     1  UNL1        0.0249
     32 C         141.7547  141.7241  157.5477 C.3     1  UNL1        0.0728
     33 C         145.1319  142.2292  155.5252 C.ar    1  UNL1        0.1396
     34 N         144.9007  143.2932  154.4934 N.ar    1  UNL1       -0.1335
     35 N         146.2191  143.6123  153.8532 N.ar    1  UNL1       -0.1277
     36 C         147.2651  142.7455  154.4893 C.ar    1  UNL1        0.1807
     37 N         146.5932  141.8908  155.5226 N.ar    1  UNL1       -0.3234
     38 H         147.0339  141.2246  156.0981 H       1  UNL1        0.1686
     39 C         148.7265  142.7354  154.1514 C.ar    1  UNL1        0.1169
     40 C         149.2637  143.6797  153.1172 C.ar    1  UNL1        0.0223
     41 C         150.7251  143.6696  152.7793 C.ar    1  UNL1        0.0032
     42 C         151.6493  142.7151  153.4755 C.ar    1  UNL1        0.0207
     43 C         151.1122  141.7708  154.5097 C.ar    1  UNL1        0.0989
     44 N         149.6507  141.7808  154.8477 N.ar    1  UNL1       -0.2407
@<TRIPOS>BOND
     1    20    21   ar
     2    21    22   ar
     3    22    23   ar
     4    23     7    1
     5     7     8   ar
     6     8     9   ar
     7     9    10   ar
     8    10    11   ar
     9    11    12   ar
    10    12    13   ar
    11    13    14   ar
    12    14    15   ar
    13    15    16   ar
    14    16    17   ar
    15    10    18   ar
    16    18    19   ar
    17    19     1    1
    18     1     2   ar
    19     2     3   ar
    20     3     4   ar
    21     4    26    1
    22    26    27    1
    23    27    28    1
    24    28    29    1
    25    29    30    1
    26    30    33    1
    27    33    34   ar
    28    34    35   ar
    29    35    36   ar
    30    36    39    1
    31    39    40   ar
    32    40    41   ar
    33    41    42   ar
    34    42    43   ar
    35    43    44   ar
    36    36    37   ar
    37    30    31    1
    38    31    32    1
    39     4     5   ar
    40     5     6   ar
    41    23    24   ar
    42    24    25   ar
    43    25    20   ar
    44    19     7   ar
    45     6     1   ar
    46    17     9   ar
    47    32    27    1
    48    17    13   ar
    49    37    33   ar
    50    44    39   ar
    51    37    38    1
@<TRIPOS>MOLECULE
*****
 44 51 0 0 0
SMALL
GASTEIGER

@<TRIPOS>ATOM
      1 C         140.3838  141.2540  163.2812 C.ar    1  UNL1        0.0176
      2 C         139.4956  142.2472  162.5923 C.ar    1  UNL1        0.0012
      3 C         139.2997  142.1744  161.1069 C.ar    1  UNL1       -0.0029
      4 C         139.9920  141.1084  160.3105 C.ar    1  UNL1       -0.0061
      5 C         140.8803  140.1152  160.9994 C.ar    1  UNL1       -0.0029
      6 C         141.0761  140.1881  162.4848 C.ar    1  UNL1        0.0012
      7 C         141.6833  142.1674  165.3372 C.ar    1  UNL1        0.0178
      8 C         141.8792  142.2403  166.8225 C.ar    1  UNL1        0.0061
      9 C         140.9715  141.4727  167.7373 C.ar    1  UNL1        0.0540
     10 C         139.8679  140.6322  167.1668 C.ar    1  UNL1        0.0857
     11 C         138.9602  139.8646  168.0815 C.ar    1  UNL1        0.0383
     12 C         139.1561  139.9375  169.5670 C.ar    1  UNL1        0.0845
     13 N         140.2597  140.7780  170.1375 N.ar    1  UNL1       -0.2699
     14 C         140.6927  141.0423  171.5491 C.ar    1  UNL1        0.2069
     15 N         141.8681  141.9733  171.5067 N.ar    1  UNL1       -0.1252
     16 N         142.1615  142.2844  170.0689 N.ar    1  UNL1       -0.1283
     17 C         141.1674  141.5456  169.2227 C.ar    1  UNL1        0.1718
     18 N         139.6720  140.5593  165.6814 N.ar    1  UNL1       -0.2452
     19 C         140.5797  141.3269  164.7666 C.ar    1  UNL1        0.0812
     20 C         144.4067  144.4702  162.5930 C.ar    1  UNL1        0.0000
     21 C         144.7458  143.0602  162.9762 C.ar    1  UNL1        0.0000
     22 C         143.8379  142.2926  163.8909 C.ar    1  UNL1        0.0000
     23 C         142.5911  142.9351  164.4224 C.ar    1  UNL1        0.0015
     24 C         142.2520  144.3451  164.0392 C.ar    1  UNL1        0.0000
     25 C         143.1598  145.1126  163.1246 C.ar    1  UNL1        0.0000
     26 C         139.7961  141.0356  158.8251 C.3     1  UNL1        0.0991
     27 N         140.3279  139.8633  158.0551 N.3     1  UNL1       -0.2689
     28 C         141.7887  139.7835  157.7244 C.3     1  UNL1        0.0728
     29 C         142.3205  138.6113  156.9544 C.3     1  UNL1        0.0249
     30 C         141.3913  137.5188  156.5150 C.3     1  UNL1        0.0613
     31 C         139.9304  137.5985  156.8457 C.3     1  UNL1        0.0249
     32 C         139.3986  138.7708  157.6157 C.3     1  UNL1        0.0728
     33 C         141.9231  136.3464  155.7449 C.ar    1  UNL1        0.1396
     34 N         141.9454  136.2095  154.2514 N.ar    1  UNL1       -0.1335
     35 N         142.5620  134.8837  153.9167 N.ar    1  UNL1       -0.1277
     36 C         142.9208  134.2013  155.2033 C.ar    1  UNL1        0.1807
     37 N         142.5260  135.1053  156.3333 N.ar    1  UNL1       -0.3234
     38 H         142.6421  134.9170  157.2926 H       1  UNL1        0.1686
     39 C         143.5619  132.8518  155.3366 C.ar    1  UNL1        0.1169
     40 C         144.4219  132.5442  156.5265 C.ar    1  UNL1        0.0223
     41 C         145.0630  131.1947  156.6598 C.ar    1  UNL1        0.0032
     42 C         144.8442  130.1528  155.6032 C.ar    1  UNL1        0.0207
     43 C         143.9842  130.4602  154.4133 C.ar    1  UNL1        0.0989
     44 N         143.3431  131.8098  154.2800 N.ar    1  UNL1       -0.2407
@<TRIPOS>BOND
     1    20    21   ar
     2    21    22   ar
     3    22    23   ar
     4    23     7    1
     5     7     8   ar
     6     8     9   ar
     7     9    10   ar
     8    10    11   ar
     9    11    12   ar
    10    12    13   ar
    11    13    14   ar
    12    14    15   ar
    13    15    16   ar
    14    16    17   ar
    15    10    18   ar
    16    18    19   ar
    17    19     1    1
    18     1     2   ar
    19     2     3   ar
    20     3     4   ar
    21     4    26    1
    22    26    27    1
    23    27    28    1
    24    28    29    1
    25    29    30    1
    26    30    33    1
    27    33    34   ar
    28    34    35   ar
    29    35    36   ar
    30    36    39    1
    31    39    40   ar
    32    40    41   ar
    33    41    42   ar
    34    42    43   ar
    35    43    44   ar
    36    36    37   ar
    37    30    31    1
    38    31    32    1
    39     4     5   ar
    40     5     6   ar
    41    23    24   ar
    42    24    25   ar
    43    25    20   ar
    44    19     7   ar
    45     6     1   ar
    46    17     9   ar
    47    32    27    1
    48    17    13   ar
    49    37    33   ar
    50    44    39   ar
    51    37    38    1
@<TRIPOS>MOLECULE
*****
 44 51 0 0 0
SMALL
GASTEIGER

@<TRIPOS>ATOM
      1 C         142.5123  140.9809  163.5076 C.ar    1  UNL1        0.0176
      2 C         141.8570  141.9875  162.6092 C.ar    1  UNL1        0.0012
      3 C         142.2334  142.0557  161.1588 C.ar    1  UNL1       -0.0029
      4 C         143.2652  141.1172  160.6068 C.ar    1  UNL1       -0.0061
      5 C         143.9205  140.1105  161.5052 C.ar    1  UNL1       -0.0029
      6 C         143.5440  140.0424  162.9557 C.ar    1  UNL1        0.0012
      7 C         140.9007  140.1725  165.3782 C.ar    1  UNL1        0.0178
      8 C         140.5241  140.1044  166.8285 C.ar    1  UNL1        0.0061
      9 C         141.3826  140.7765  167.8587 C.ar    1  UNL1        0.0540
     10 C         142.6178  141.5167  167.4385 C.ar    1  UNL1        0.0857
     11 C         143.4763  142.1887  168.4686 C.ar    1  UNL1        0.0383
     12 C         143.0998  142.1206  169.9191 C.ar    1  UNL1        0.0845
     13 N         141.8646  141.3804  170.3392 N.ar    1  UNL1       -0.2699
     14 C         141.2450  141.1442  171.6847 C.ar    1  UNL1        0.2069
     15 N         140.0035  140.3262  171.4861 N.ar    1  UNL1       -0.1252
     16 N         139.8558  140.0568  170.0179 N.ar    1  UNL1       -0.1283
     17 C         141.0061  140.7083  169.3091 C.ar    1  UNL1        0.1718
     18 N         142.9943  141.5848  165.9881 N.ar    1  UNL1       -0.2452
     19 C         142.1358  140.9127  164.9580 C.ar    1  UNL1        0.0812
     20 C         138.3249  138.1561  162.2879 C.ar    1  UNL1        0.0000
     21 C         139.4875  137.4234  162.8892 C.ar    1  UNL1        0.0000
     22 C         140.3460  138.0956  163.9193 C.ar    1  UNL1        0.0000
     23 C         140.0420  139.5004  164.3481 C.ar    1  UNL1        0.0015
     24 C         138.8795  140.2332  163.7468 C.ar    1  UNL1        0.0000
     25 C         138.0209  139.5611  162.7168 C.ar    1  UNL1        0.0000
     26 C         143.6417  141.1853  159.1564 C.3     1  UNL1        0.0991
     27 N         142.9884  142.1939  158.2586 N.3     1  UNL1       -0.2689
     28 C         143.2721  143.6554  158.4411 C.3     1  UNL1        0.0728
     29 C         142.6189  144.6640  157.5433 C.3     1  UNL1        0.0249
     30 C         141.6820  144.2110  156.4631 C.3     1  UNL1        0.0613
     31 C         141.3982  142.7494  156.2806 C.3     1  UNL1        0.0249
     32 C         142.0515  141.7409  157.1784 C.3     1  UNL1        0.0728
     33 C         141.0287  145.2197  155.5652 C.ar    1  UNL1        0.1396
     34 N         140.5207  144.9660  154.1768 N.ar    1  UNL1       -0.1335
     35 N         139.9468  146.2485  153.6517 N.ar    1  UNL1       -0.1277
     36 C         140.1002  147.2948  154.7156 C.ar    1  UNL1        0.1807
     37 N         140.7688  146.6590  155.8981 N.ar    1  UNL1       -0.3234
     38 H         140.9970  147.1075  156.7443 H       1  UNL1        0.1686
     39 C         139.6618  148.7257  154.6145 C.ar    1  UNL1        0.1169
     40 C         138.8496  149.3409  155.7154 C.ar    1  UNL1        0.0223
     41 C         138.4112  150.7718  155.6144 C.ar    1  UNL1        0.0032
     42 C         138.7851  151.5876  154.4125 C.ar    1  UNL1        0.0207
     43 C         139.5973  150.9726  153.3116 C.ar    1  UNL1        0.0989
     44 N         140.0357  149.5416  153.4126 N.ar    1  UNL1       -0.2407
@<TRIPOS>BOND
     1    20    21   ar
     2    21    22   ar
     3    22    23   ar
     4    23     7    1
     5     7     8   ar
     6     8     9   ar
     7     9    10   ar
     8    10    11   ar
     9    11    12   ar
    10    12    13   ar
    11    13    14   ar
    12    14    15   ar
    13    15    16   ar
    14    16    17   ar
    15    10    18   ar
    16    18    19   ar
    17    19     1    1
    18     1     2   ar
    19     2     3   ar
    20     3     4   ar
    21     4    26    1
    22    26    27    1
    23    27    28    1
    24    28    29    1
    25    29    30    1
    26    30    33    1
    27    33    34   ar
    28    34    35   ar
    29    35    36   ar
    30    36    39    1
    31    39    40   ar
    32    40    41   ar
    33    41    42   ar
    34    42    43   ar
    35    43    44   ar
    36    36    37   ar
    37    30    31    1
    38    31    32    1
    39     4     5   ar
    40     5     6   ar
    41    23    24   ar
    42    24    25   ar
    43    25    20   ar
    44    19     7   ar
    45     6     1   ar
    46    17     9   ar
    47    32    27    1
    48    17    13   ar
    49    37    33   ar
    50    44    39   ar
    51    37    38    1
@<TRIPOS>MOLECULE
*****
 44 51 0 0 0
SMALL
GASTEIGER

@<TRIPOS>ATOM
      1 C         142.8484  141.4185  163.4690 C.ar    1  UNL1        0.0176
      2 C         143.9626  140.5674  162.9359 C.ar    1  UNL1        0.0012
      3 C         144.4684  140.7819  161.5401 C.ar    1  UNL1       -0.0029
      4 C         143.8599  141.8476  160.6774 C.ar    1  UNL1       -0.0061
      5 C         142.7457  142.6987  161.2105 C.ar    1  UNL1       -0.0029
      6 C         142.2400  142.4841  162.6064 C.ar    1  UNL1        0.0012
      7 C         141.1634  140.3087  165.1058 C.ar    1  UNL1        0.0178
      8 C         140.6577  140.0941  166.5016 C.ar    1  UNL1        0.0061
      9 C         141.3312  140.7745  167.6563 C.ar    1  UNL1        0.0540
     10 C         142.5105  141.6697  167.4153 C.ar    1  UNL1        0.0857
     11 C         143.1839  142.3501  168.5699 C.ar    1  UNL1        0.0383
     12 C         142.6782  142.1355  169.9658 C.ar    1  UNL1        0.0845
     13 N         141.4990  141.2404  170.2068 N.ar    1  UNL1       -0.2699
     14 C         140.7819  140.8413  171.4624 C.ar    1  UNL1        0.2069
     15 N         139.6652  139.9142  171.0837 N.ar    1  UNL1       -0.1252
     16 N         139.6921  139.7403  169.5940 N.ar    1  UNL1       -0.1283
     17 C         140.8254  140.5599  169.0521 C.ar    1  UNL1        0.1718
     18 N         143.0162  141.8843  166.0194 N.ar    1  UNL1       -0.2452
     19 C         142.3427  141.2038  164.8648 C.ar    1  UNL1        0.0812
     20 C         139.1428  138.2671  161.6418 C.ar    1  UNL1        0.0000
     21 C         140.3569  137.6508  162.2713 C.ar    1  UNL1        0.0000
     22 C         141.0304  138.3313  163.4259 C.ar    1  UNL1        0.0000
     23 C         140.4899  139.6282  163.9512 C.ar    1  UNL1        0.0015
     24 C         139.2758  140.2446  163.3217 C.ar    1  UNL1        0.0000
     25 C         138.6023  139.5641  162.1671 C.ar    1  UNL1        0.0000
     26 C         144.3657  142.0621  159.2817 C.3     1  UNL1        0.0991
     27 N         143.9713  141.1152  158.1872 N.3     1  UNL1       -0.2689
     28 C         142.7165  140.3033  158.3140 C.3     1  UNL1        0.0728
     29 C         142.3221  139.3564  157.2196 C.3     1  UNL1        0.0249
     30 C         143.1825  139.2215  155.9983 C.3     1  UNL1        0.0613
     31 C         144.4374  140.0335  155.8715 C.3     1  UNL1        0.0249
     32 C         144.8318  140.9804  156.9660 C.3     1  UNL1        0.0728
     33 C         142.7881  138.2746  154.9038 C.ar    1  UNL1        0.1396
     34 N         142.5072  138.6437  153.4773 N.ar    1  UNL1       -0.1335
     35 N         142.1509  137.3896  152.7356 N.ar    1  UNL1       -0.1277
     36 C         142.2116  136.2454  153.7036 C.ar    1  UNL1        0.1807
     37 N         142.6054  136.7923  155.0436 N.ar    1  UNL1       -0.3234
     38 H         142.7233  136.2701  155.8699 H       1  UNL1        0.1686
     39 C         141.9282  134.8068  153.3872 C.ar    1  UNL1        0.1169
     40 C         142.5979  133.7197  154.1744 C.ar    1  UNL1        0.0223
     41 C         142.3145  132.2811  153.8579 C.ar    1  UNL1        0.0032
     42 C         141.3614  131.9297  152.7543 C.ar    1  UNL1        0.0207
     43 C         140.6917  133.0167  151.9670 C.ar    1  UNL1        0.0989
     44 N         140.9751  134.4553  152.2834 N.ar    1  UNL1       -0.2407
@<TRIPOS>BOND
     1    20    21   ar
     2    21    22   ar
     3    22    23   ar
     4    23     7    1
     5     7     8   ar
     6     8     9   ar
     7     9    10   ar
     8    10    11   ar
     9    11    12   ar
    10    12    13   ar
    11    13    14   ar
    12    14    15   ar
    13    15    16   ar
    14    16    17   ar
    15    10    18   ar
    16    18    19   ar
    17    19     1    1
    18     1     2   ar
    19     2     3   ar
    20     3     4   ar
    21     4    26    1
    22    26    27    1
    23    27    28    1
    24    28    29    1
    25    29    30    1
    26    30    33    1
    27    33    34   ar
    28    34    35   ar
    29    35    36   ar
    30    36    39    1
    31    39    40   ar
    32    40    41   ar
    33    41    42   ar
    34    42    43   ar
    35    43    44   ar
    36    36    37   ar
    37    30    31    1
    38    31    32    1
    39     4     5   ar
    40     5     6   ar
    41    23    24   ar
    42    24    25   ar
    43    25    20   ar
    44    19     7   ar
    45     6     1   ar
    46    17     9   ar
    47    32    27    1
    48    17    13   ar
    49    37    33   ar
    50    44    39   ar
    51    37    38    1
@<TRIPOS>MOLECULE
*****
 44 51 0 0 0
SMALL
GASTEIGER

@<TRIPOS>ATOM
      1 C         140.4959  140.9927  163.4759 C.ar    1  UNL1        0.0176
      2 C         139.5159  141.8691  162.7537 C.ar    1  UNL1        0.0012
      3 C         139.3107  141.7062  161.2768 C.ar    1  UNL1       -0.0029
      4 C         140.0854  140.6669  160.5221 C.ar    1  UNL1       -0.0061
      5 C         141.0654  139.7905  161.2443 C.ar    1  UNL1       -0.0029
      6 C         141.2706  139.9535  162.7213 C.ar    1  UNL1        0.0012
      7 C         141.7732  142.0715  165.4646 C.ar    1  UNL1        0.0178
      8 C         141.9784  142.2346  166.9415 C.ar    1  UNL1        0.0061
      9 C         141.1115  141.4818  167.9068 C.ar    1  UNL1        0.0540
     10 C         140.0393  140.5660  167.3951 C.ar    1  UNL1        0.0857
     11 C         139.1724  139.8133  168.3603 C.ar    1  UNL1        0.0383
     12 C         139.3776  139.9763  169.8373 C.ar    1  UNL1        0.0845
     13 N         140.4497  140.8921  170.3490 N.ar    1  UNL1       -0.2699
     14 C         140.8832  141.2518  171.7392 C.ar    1  UNL1        0.2069
     15 N         142.0181  142.2269  171.6331 N.ar    1  UNL1       -0.1252
     16 N         142.2860  142.4698  170.1773 N.ar    1  UNL1       -0.1283
     17 C         141.3167  141.6448  169.3837 C.ar    1  UNL1        0.1718
     18 N         139.8341  140.4030  165.9181 N.ar    1  UNL1       -0.2452
     19 C         140.7010  141.1557  164.9529 C.ar    1  UNL1        0.0812
     20 C         144.3744  144.3297  162.5689 C.ar    1  UNL1        0.0000
     21 C         144.7942  142.9740  163.0543 C.ar    1  UNL1        0.0000
     22 C         143.9271  142.2213  164.0195 C.ar    1  UNL1        0.0000
     23 C         142.6402  142.8243  164.4993 C.ar    1  UNL1        0.0015
     24 C         142.2204  144.1801  164.0139 C.ar    1  UNL1        0.0000
     25 C         143.0874  144.9328  163.0488 C.ar    1  UNL1        0.0000
     26 C         139.8802  140.5039  159.0452 C.3     1  UNL1        0.0991
     27 N         139.9321  141.7020  158.1441 N.3     1  UNL1       -0.2689
     28 C         138.7815  142.0035  157.2303 C.3     1  UNL1        0.0728
     29 C         138.8334  143.2015  156.3292 C.3     1  UNL1        0.0249
     30 C         140.0359  144.0981  156.3420 C.3     1  UNL1        0.0613
     31 C         141.1865  143.7966  157.2559 C.3     1  UNL1        0.0249
     32 C         141.1347  142.5986  158.1570 C.3     1  UNL1        0.0728
     33 C         140.0877  145.2963  155.4409 C.ar    1  UNL1        0.1396
     34 N         140.5576  145.3084  154.0164 N.ar    1  UNL1       -0.1335
     35 N         140.4391  146.7122  153.5013 N.ar    1  UNL1       -0.1277
     36 C         139.8960  147.5675  154.6074 C.ar    1  UNL1        0.1807
     37 N         139.6789  146.6925  155.8061 N.ar    1  UNL1       -0.3234
     38 H         139.3294  146.9834  156.6792 H       1  UNL1        0.1686
     39 C         139.6188  149.0396  154.5285 C.ar    1  UNL1        0.1169
     40 C         140.2181  149.8574  153.4231 C.ar    1  UNL1        0.0223
     41 C         139.9408  151.3295  153.3442 C.ar    1  UNL1        0.0032
     42 C         139.0643  151.9836  154.3708 C.ar    1  UNL1        0.0207
     43 C         138.4651  151.1659  155.4762 C.ar    1  UNL1        0.0989
     44 N         138.7423  149.6938  155.5551 N.ar    1  UNL1       -0.2407
@<TRIPOS>BOND
     1    20    21   ar
     2    21    22   ar
     3    22    23   ar
     4    23     7    1
     5     7     8   ar
     6     8     9   ar
     7     9    10   ar
     8    10    11   ar
     9    11    12   ar
    10    12    13   ar
    11    13    14   ar
    12    14    15   ar
    13    15    16   ar
    14    16    17   ar
    15    10    18   ar
    16    18    19   ar
    17    19     1    1
    18     1     2   ar
    19     2     3   ar
    20     3     4   ar
    21     4    26    1
    22    26    27    1
    23    27    28    1
    24    28    29    1
    25    29    30    1
    26    30    33    1
    27    33    34   ar
    28    34    35   ar
    29    35    36   ar
    30    36    39    1
    31    39    40   ar
    32    40    41   ar
    33    41    42   ar
    34    42    43   ar
    35    43    44   ar
    36    36    37   ar
    37    30    31    1
    38    31    32    1
    39     4     5   ar
    40     5     6   ar
    41    23    24   ar
    42    24    25   ar
    43    25    20   ar
    44    19     7   ar
    45     6     1   ar
    46    17     9   ar
    47    32    27    1
    48    17    13   ar
    49    37    33   ar
    50    44    39   ar
    51    37    38    1
