@<TRIPOS>MOLECULE
*****
 33 35 0 0 0
SMALL
GASTEIGER

@<TRIPOS>ATOM
      1 C         138.8097  140.0180  163.3927 C.2     1  UNL1        0.2495
      2 O         137.7945  139.1093  162.7653 O.2     1  UNL1       -0.2698
      3 N         139.6747  140.8865  162.5282 N.am    1  UNL1       -0.2794
      4 H         140.3410  141.4829  162.9401 H       1  UNL1        0.1552
      5 C         139.5247  140.8463  161.0363 C.ar    1  UNL1        0.0636
      6 C         140.1914  139.7607  160.2444 C.ar    1  UNL1        0.0164
      7 C         140.0413  139.7205  158.7525 C.ar    1  UNL1        0.0073
      8 C         139.2245  140.7659  158.0524 C.ar    1  UNL1        0.0018
      9 C         138.5579  141.8514  158.8443 C.ar    1  UNL1        0.0154
     10 C         138.7079  141.8916  160.3362 C.ar    1  UNL1        0.0552
     11 N         138.0412  142.9772  161.1281 N.pl3   1  UNL1       -0.3560
     12 H         137.5052  143.6633  160.6686 H       1  UNL1        0.1424
     13 H         138.1397  143.0035  162.1073 H       1  UNL1        0.1424
     14 C         140.7080  138.6349  157.9607 C.ar    1  UNL1        0.0295
     15 C         140.0435  137.7419  156.9553 C.ar    1  UNL1        0.0070
     16 C         141.0810  136.8068  156.4084 C.ar    1  UNL1        0.0075
     17 C         142.3869  137.1220  157.0758 C.ar    1  UNL1        0.0354
     18 S         142.1563  138.2518  158.0351 S.2     1  UNL1       -0.0864
     19 C         139.2599  140.1386  167.8685 C.ar    1  UNL1        0.0005
     20 C         140.0473  141.0834  167.0098 C.ar    1  UNL1       -0.0024
     21 C         139.8972  141.0432  165.5179 C.ar    1  UNL1        0.0043
     22 C         138.9597  140.0582  164.8846 C.ar    1  UNL1        0.0537
     23 C         138.1724  139.1135  165.7434 C.ar    1  UNL1        0.0043
     24 C         138.3224  139.1537  167.2353 C.ar    1  UNL1       -0.0024
     25 C         139.4100  140.1789  169.3604 C.3     1  UNL1        0.1514
     26 N         138.2291  139.8954  170.2409 N.3     1  UNL1       -0.3116
     27 H         138.5097  139.9659  171.2190 H       1  UNL1        0.1195
     28 H         137.8832  138.9544  170.0533 H       1  UNL1        0.1195
     29 C         142.3763  142.2290  171.0182 C.3     1  UNL1        0.1150
     30 N         141.0453  141.9054  170.4067 N.am    1  UNL1       -0.2747
     31 C         140.0188  142.9848  170.2299 C.3     1  UNL1        0.1150
     32 C         140.7408  140.5025  169.9719 C.2     1  UNL1        0.2440
     33 O         141.7674  139.4231  170.1487 O.2     1  UNL1       -0.2731
@<TRIPOS>BOND
     1    29    30    1
     2    30    31    1
     3    30    32   am
     4    32    33    2
     5    32    25    1
     6    25    26    1
     7    25    19    1
     8    19    20   ar
     9    20    21   ar
    10    21    22   ar
    11    22     1    1
    12     1     2    2
    13     1     3   am
    14     3     5    1
    15     5     6   ar
    16     6     7   ar
    17     7    14    1
    18    14    15   ar
    19    15    16   ar
    20    16    17   ar
    21    17    18   ar
    22     7     8   ar
    23     8     9   ar
    24     9    10   ar
    25    10    11    1
    26    22    23   ar
    27    23    24   ar
    28    24    19   ar
    29    10     5   ar
    30    18    14   ar
    31    26    27    1
    32    26    28    1
    33     3     4    1
    34    11    12    1
    35    11    13    1
@<TRIPOS>MOLECULE
*****
 33 35 0 0 0
SMALL
GASTEIGER

@<TRIPOS>ATOM
      1 C         138.8338  140.0294  163.4099 C.2     1  UNL1        0.2495
      2 O         137.7718  139.1989  162.7524 O.2     1  UNL1       -0.2698
      3 N         139.7768  140.8412  162.5723 N.am    1  UNL1       -0.2794
      4 H         140.4739  141.3863  163.0038 H       1  UNL1        0.1552
      5 C         139.6579  140.8224  161.0771 C.ar    1  UNL1        0.0636
      6 C         140.3059  139.7243  160.2869 C.ar    1  UNL1        0.0164
      7 C         140.1869  139.7056  158.7917 C.ar    1  UNL1        0.0073
      8 C         139.4200  140.7849  158.0868 C.ar    1  UNL1        0.0018
      9 C         138.7720  141.8829  158.8770 C.ar    1  UNL1        0.0154
     10 C         138.8909  141.9017  160.3721 C.ar    1  UNL1        0.0552
     11 N         138.2430  142.9997  161.1623 N.pl3   1  UNL1       -0.3560
     12 H         137.7396  143.7080  160.6997 H       1  UNL1        0.1424
     13 H         138.3211  143.0120  162.1437 H       1  UNL1        0.1424
     14 C         140.8349  138.6075  158.0015 C.ar    1  UNL1        0.0295
     15 C         142.2618  138.1603  158.1195 C.ar    1  UNL1        0.0070
     16 C         142.4786  137.0403  157.1455 C.ar    1  UNL1        0.0075
     17 C         141.1855  136.7954  156.4256 C.ar    1  UNL1        0.0354
     18 S         140.1697  137.7640  156.9547 S.2     1  UNL1       -0.0864
     19 C         139.1907  140.0858  167.8954 C.ar    1  UNL1        0.0005
     20 C         138.3164  139.0677  167.2253 C.ar    1  UNL1       -0.0024
     21 C         138.1974  139.0489  165.7301 C.ar    1  UNL1        0.0043
     22 C         138.9528  140.0482  164.9051 C.ar    1  UNL1        0.0537
     23 C         139.8271  141.0663  165.5752 C.ar    1  UNL1        0.0043
     24 C         139.9460  141.0851  167.0703 C.ar    1  UNL1       -0.0024
     25 C         139.3096  140.1045  169.3905 C.3     1  UNL1        0.1514
     26 N         138.1062  139.8282  170.2422 N.3     1  UNL1       -0.3116
     27 H         138.3670  139.8817  171.2268 H       1  UNL1        0.1195
     28 H         137.7501  138.8951  170.0350 H       1  UNL1        0.1195
     29 C         142.2395  142.0677  171.2104 C.3     1  UNL1        0.1150
     30 N         140.9171  141.7726  170.5669 N.am    1  UNL1       -0.2747
     31 C         139.8797  142.8503  170.4562 C.3     1  UNL1        0.1150
     32 C         140.6320  140.3997  170.0341 C.2     1  UNL1        0.2440
     33 O         141.6695  139.3219  170.1448 O.2     1  UNL1       -0.2731
@<TRIPOS>BOND
     1    29    30    1
     2    30    31    1
     3    30    32   am
     4    32    33    2
     5    32    25    1
     6    25    26    1
     7    25    19    1
     8    19    20   ar
     9    20    21   ar
    10    21    22   ar
    11    22     1    1
    12     1     2    2
    13     1     3   am
    14     3     5    1
    15     5     6   ar
    16     6     7   ar
    17     7    14    1
    18    14    15   ar
    19    15    16   ar
    20    16    17   ar
    21    17    18   ar
    22     7     8   ar
    23     8     9   ar
    24     9    10   ar
    25    10    11    1
    26    22    23   ar
    27    23    24   ar
    28    24    19   ar
    29    10     5   ar
    30    18    14   ar
    31    26    27    1
    32    26    28    1
    33     3     4    1
    34    11    12    1
    35    11    13    1
@<TRIPOS>MOLECULE
*****
 33 35 0 0 0
SMALL
GASTEIGER

@<TRIPOS>ATOM
      1 C         139.3749  142.8591  163.0930 C.2     1  UNL1        0.2495
      2 O         138.2496  143.3946  163.9279 O.2     1  UNL1       -0.2698
      3 N         140.0777  141.5984  163.5014 N.am    1  UNL1       -0.2794
      4 H         140.8162  141.2470  162.9534 H       1  UNL1        0.1552
      5 C         139.6552  140.8732  164.7446 C.ar    1  UNL1        0.0636
      6 C         140.1908  141.2987  166.0796 C.ar    1  UNL1        0.0164
      7 C         139.7683  140.5735  167.3229 C.ar    1  UNL1        0.0073
      8 C         138.8103  139.4229  167.2311 C.ar    1  UNL1        0.0018
      9 C         138.2749  138.9975  165.8961 C.ar    1  UNL1        0.0154
     10 C         138.6973  139.7227  164.6529 C.ar    1  UNL1        0.0552
     11 N         138.1618  139.2973  163.3179 N.pl3   1  UNL1       -0.3560
     12 H         137.5331  138.5421  163.2576 H       1  UNL1        0.1424
     13 H         138.4391  139.7732  162.5019 H       1  UNL1        0.1424
     14 C         140.3038  140.9989  168.6579 C.ar    1  UNL1        0.0295
     15 C         140.2543  142.3862  169.2263 C.ar    1  UNL1        0.0070
     16 C         140.9027  142.3564  170.5786 C.ar    1  UNL1        0.0075
     17 C         141.3530  140.9507  170.8459 C.ar    1  UNL1        0.0354
     18 S         140.9828  140.1118  169.6588 S.2     1  UNL1       -0.0864
     19 C         140.6422  145.0347  159.3633 C.ar    1  UNL1        0.0005
     20 C         140.1604  145.8074  160.5552 C.ar    1  UNL1       -0.0024
     21 C         139.7380  145.0822  161.7985 C.ar    1  UNL1        0.0043
     22 C         139.7973  143.5843  161.8498 C.ar    1  UNL1        0.0537
     23 C         140.2791  142.8116  160.6579 C.ar    1  UNL1        0.0043
     24 C         140.7015  143.5368  159.4146 C.ar    1  UNL1       -0.0024
     25 C         141.0646  145.7599  158.1201 C.3     1  UNL1        0.1514
     26 N         142.5001  146.1521  157.9317 N.3     1  UNL1       -0.3116
     27 H         142.6068  146.6327  157.0384 H       1  UNL1        0.1195
     28 H         143.0848  145.3165  157.9403 H       1  UNL1        0.1195
     29 C         138.8396  145.5038  154.8438 C.3     1  UNL1        0.1150
     30 N         139.8527  145.1708  155.8988 N.am    1  UNL1       -0.2747
     31 C         140.6668  143.9159  155.7873 C.3     1  UNL1        0.1150
     32 C         140.0516  146.0928  157.0651 C.2     1  UNL1        0.2440
     33 O         139.2374  147.3477  157.1766 O.2     1  UNL1       -0.2731
@<TRIPOS>BOND
     1    29    30    1
     2    30    31    1
     3    30    32   am
     4    32    33    2
     5    32    25    1
     6    25    26    1
     7    25    19    1
     8    19    20   ar
     9    20    21   ar
    10    21    22   ar
    11    22     1    1
    12     1     2    2
    13     1     3   am
    14     3     5    1
    15     5     6   ar
    16     6     7   ar
    17     7    14    1
    18    14    15   ar
    19    15    16   ar
    20    16    17   ar
    21    17    18   ar
    22     7     8   ar
    23     8     9   ar
    24     9    10   ar
    25    10    11    1
    26    22    23   ar
    27    23    24   ar
    28    24    19   ar
    29    10     5   ar
    30    18    14   ar
    31    26    27    1
    32    26    28    1
    33     3     4    1
    34    11    12    1
    35    11    13    1
@<TRIPOS>MOLECULE
*****
 33 35 0 0 0
SMALL
GASTEIGER

@<TRIPOS>ATOM
      1 C         140.1794  138.2271  158.0739 C.2     1  UNL1        0.2495
      2 O         139.2564  137.6007  157.0712 O.2     1  UNL1       -0.2698
      3 N         141.6555  137.9720  157.9964 N.am    1  UNL1       -0.2794
      4 H         142.2613  138.3831  158.6545 H       1  UNL1        0.1552
      5 C         142.2085  137.0904  156.9161 C.ar    1  UNL1        0.0636
      6 C         142.8119  135.7627  157.2671 C.ar    1  UNL1        0.0164
      7 C         143.3650  134.8811  156.1869 C.ar    1  UNL1        0.0073
      8 C         143.3146  135.3273  154.7556 C.ar    1  UNL1        0.0018
      9 C         142.7112  136.6549  154.4046 C.ar    1  UNL1        0.0154
     10 C         142.1581  137.5365  155.4849 C.ar    1  UNL1        0.0552
     11 N         141.5547  138.8641  155.1340 N.pl3   1  UNL1       -0.3560
     12 H         141.5216  139.1569  154.1946 H       1  UNL1        0.1424
     13 H         141.1918  139.4427  155.8430 H       1  UNL1        0.1424
     14 C         143.9684  133.5535  156.5378 C.ar    1  UNL1        0.0295
     15 C         144.1419  132.3901  155.6069 C.ar    1  UNL1        0.0070
     16 C         144.7850  131.2737  156.3750 C.ar    1  UNL1        0.0075
     17 C         145.0089  131.7471  157.7807 C.ar    1  UNL1        0.0354
     18 S         144.5043  133.1561  157.8812 S.2     1  UNL1       -0.0864
     19 C         138.5203  140.8718  161.3148 C.ar    1  UNL1        0.0005
     20 C         138.2389  141.1837  159.8748 C.ar    1  UNL1       -0.0024
     21 C         138.7919  140.3021  158.7945 C.ar    1  UNL1        0.0043
     22 C         139.6264  139.1087  159.1542 C.ar    1  UNL1        0.0537
     23 C         139.9078  138.7969  160.5942 C.ar    1  UNL1        0.0043
     24 C         139.3548  139.6784  161.6744 C.ar    1  UNL1       -0.0024
     25 C         137.9673  141.7534  162.3950 C.3     1  UNL1        0.1514
     26 N         136.7404  141.3350  163.1498 N.3     1  UNL1       -0.3116
     27 H         136.5070  142.0477  163.8412 H       1  UNL1        0.1195
     28 H         136.9175  140.4484  163.6218 H       1  UNL1        0.1195
     29 C         140.3198  144.4195  164.1580 C.3     1  UNL1        0.1150
     30 N         139.6459  143.1195  163.8325 N.am    1  UNL1       -0.2747
     31 C         139.9767  141.8857  164.6188 C.3     1  UNL1        0.1150
     32 C         138.6412  143.0533  162.7206 C.2     1  UNL1        0.2440
     33 O         138.3104  144.2872  161.9343 O.2     1  UNL1       -0.2731
@<TRIPOS>BOND
     1    29    30    1
     2    30    31    1
     3    30    32   am
     4    32    33    2
     5    32    25    1
     6    25    26    1
     7    25    19    1
     8    19    20   ar
     9    20    21   ar
    10    21    22   ar
    11    22     1    1
    12     1     2    2
    13     1     3   am
    14     3     5    1
    15     5     6   ar
    16     6     7   ar
    17     7    14    1
    18    14    15   ar
    19    15    16   ar
    20    16    17   ar
    21    17    18   ar
    22     7     8   ar
    23     8     9   ar
    24     9    10   ar
    25    10    11    1
    26    22    23   ar
    27    23    24   ar
    28    24    19   ar
    29    10     5   ar
    30    18    14   ar
    31    26    27    1
    32    26    28    1
    33     3     4    1
    34    11    12    1
    35    11    13    1
@<TRIPOS>MOLECULE
*****
 33 35 0 0 0
SMALL
GASTEIGER

@<TRIPOS>ATOM
      1 C         139.7799  138.8082  163.7107 C.2     1  UNL1        0.2495
      2 O         139.0769  137.5896  163.1903 O.2     1  UNL1       -0.2698
      3 N         140.6394  139.6270  162.7938 N.am    1  UNL1       -0.2794
      4 H         141.1008  140.4268  163.1354 H       1  UNL1        0.1552
      5 C         140.7960  139.2272  161.3566 C.ar    1  UNL1        0.0636
      6 C         139.8452  139.7551  160.3234 C.ar    1  UNL1        0.0164
      7 C         140.0017  139.3554  158.8862 C.ar    1  UNL1        0.0073
      8 C         141.1091  138.4277  158.4821 C.ar    1  UNL1        0.0018
      9 C         142.0598  137.8998  159.5153 C.ar    1  UNL1        0.0154
     10 C         141.9033  138.2996  160.9525 C.ar    1  UNL1        0.0552
     11 N         142.8540  137.7717  161.9857 N.pl3   1  UNL1       -0.3560
     12 H         143.5807  137.1628  161.7205 H       1  UNL1        0.1424
     13 H         142.7512  138.0341  162.9290 H       1  UNL1        0.1424
     14 C         139.0510  139.8832  157.8530 C.ar    1  UNL1        0.0295
     15 C         137.8877  140.7949  158.1092 C.ar    1  UNL1        0.0070
     16 C         137.2144  141.0672  156.7968 C.ar    1  UNL1        0.0075
     17 C         137.9616  140.3239  155.7295 C.ar    1  UNL1        0.0354
     18 S         139.0967  139.5922  156.3823 S.2     1  UNL1       -0.0864
     19 C         139.3102  140.0075  168.0224 C.ar    1  UNL1        0.0005
     20 C         140.4936  140.4868  167.2353 C.ar    1  UNL1       -0.0024
     21 C         140.6502  140.0870  165.7981 C.ar    1  UNL1        0.0043
     22 C         139.6233  139.2080  165.1480 C.ar    1  UNL1        0.0537
     23 C         138.4398  138.7287  165.9351 C.ar    1  UNL1        0.0043
     24 C         138.2833  139.1284  167.3723 C.ar    1  UNL1       -0.0024
     25 C         139.1536  140.4073  169.4597 C.3     1  UNL1        0.1514
     26 N         138.1046  139.7540  170.3099 N.3     1  UNL1       -0.3116
     27 H         138.1392  140.1437  171.2519 H       1  UNL1        0.1195
     28 H         138.2773  138.7495  170.3509 H       1  UNL1        0.1195
     29 C         142.3153  142.1517  171.1061 C.3     1  UNL1        0.1150
     30 N         141.4229  141.0985  170.5190 N.am    1  UNL1       -0.2747
     31 C         141.9075  139.6836  170.4043 C.3     1  UNL1        0.1150
     32 C         140.0460  141.4603  170.0467 C.2     1  UNL1        0.2440
     33 O         139.5614  142.8753  170.1615 O.2     1  UNL1       -0.2731
@<TRIPOS>BOND
     1    29    30    1
     2    30    31    1
     3    30    32   am
     4    32    33    2
     5    32    25    1
     6    25    26    1
     7    25    19    1
     8    19    20   ar
     9    20    21   ar
    10    21    22   ar
    11    22     1    1
    12     1     2    2
    13     1     3   am
    14     3     5    1
    15     5     6   ar
    16     6     7   ar
    17     7    14    1
    18    14    15   ar
    19    15    16   ar
    20    16    17   ar
    21    17    18   ar
    22     7     8   ar
    23     8     9   ar
    24     9    10   ar
    25    10    11    1
    26    22    23   ar
    27    23    24   ar
    28    24    19   ar
    29    10     5   ar
    30    18    14   ar
    31    26    27    1
    32    26    28    1
    33     3     4    1
    34    11    12    1
    35    11    13    1
@<TRIPOS>MOLECULE
*****
 33 35 0 0 0
SMALL
GASTEIGER

@<TRIPOS>ATOM
      1 C         138.4958  141.3470  163.1464 C.2     1  UNL1        0.2495
      2 O         137.0634  141.6533  162.8236 O.2     1  UNL1       -0.2698
      3 N         139.5068  141.2400  162.0436 N.am    1  UNL1       -0.2794
      4 H         140.4470  141.0389  162.2555 H       1  UNL1        0.1552
      5 C         139.0854  141.4395  160.6179 C.ar    1  UNL1        0.0636
      6 C         139.5570  142.6437  159.8579 C.ar    1  UNL1        0.0164
      7 C         139.1356  142.8431  158.4322 C.ar    1  UNL1        0.0073
      8 C         138.2426  141.8383  157.7665 C.ar    1  UNL1        0.0018
      9 C         137.7711  140.6342  158.5265 C.ar    1  UNL1        0.0154
     10 C         138.1925  140.4347  159.9522 C.ar    1  UNL1        0.0552
     11 N         137.7210  139.2306  160.7122 N.pl3   1  UNL1       -0.3560
     12 H         137.1350  138.5711  160.2752 H       1  UNL1        0.1424
     13 H         137.9976  139.0997  161.6479 H       1  UNL1        0.1424
     14 C         139.6071  144.0473  157.6722 C.ar    1  UNL1        0.0295
     15 C         139.3132  144.3525  156.2332 C.ar    1  UNL1        0.0070
     16 C         139.9798  145.6515  155.8894 C.ar    1  UNL1        0.0075
     17 C         140.6856  146.1492  157.1159 C.ar    1  UNL1        0.0354
     18 S         140.4553  145.1577  158.2176 S.2     1  UNL1       -0.0864
     19 C         139.7600  140.7486  167.4236 C.ar    1  UNL1        0.0005
     20 C         140.2001  141.9721  166.6756 C.ar    1  UNL1       -0.0024
     21 C         139.7787  142.1715  165.2499 C.ar    1  UNL1        0.0043
     22 C         138.9172  141.1475  164.5722 C.ar    1  UNL1        0.0537
     23 C         138.4772  139.9241  165.3202 C.ar    1  UNL1        0.0043
     24 C         138.8986  139.7247  166.7459 C.ar    1  UNL1       -0.0024
     25 C         140.1814  140.5492  168.8493 C.3     1  UNL1        0.1514
     26 N         139.2970  139.7903  169.7936 N.3     1  UNL1       -0.3116
     27 H         139.7359  139.7516  170.7136 H       1  UNL1        0.1195
     28 H         139.1588  138.8426  169.4427 H       1  UNL1        0.1195
     29 C         142.8357  143.0175  170.4655 C.3     1  UNL1        0.1150
     30 N         141.5298  142.4581  169.9842 N.am    1  UNL1       -0.2747
     31 C         140.2664  143.2482  170.1563 C.3     1  UNL1        0.1150
     32 C         141.4873  141.1086  169.3306 C.2     1  UNL1        0.2440
     33 O         142.7507  140.3185  169.1585 O.2     1  UNL1       -0.2731
@<TRIPOS>BOND
     1    29    30    1
     2    30    31    1
     3    30    32   am
     4    32    33    2
     5    32    25    1
     6    25    26    1
     7    25    19    1
     8    19    20   ar
     9    20    21   ar
    10    21    22   ar
    11    22     1    1
    12     1     2    2
    13     1     3   am
    14     3     5    1
    15     5     6   ar
    16     6     7   ar
    17     7    14    1
    18    14    15   ar
    19    15    16   ar
    20    16    17   ar
    21    17    18   ar
    22     7     8   ar
    23     8     9   ar
    24     9    10   ar
    25    10    11    1
    26    22    23   ar
    27    23    24   ar
    28    24    19   ar
    29    10     5   ar
    30    18    14   ar
    31    26    27    1
    32    26    28    1
    33     3     4    1
    34    11    12    1
    35    11    13    1
@<TRIPOS>MOLECULE
*****
 33 35 0 0 0
SMALL
GASTEIGER

@<TRIPOS>ATOM
      1 C         139.1939  142.9593  162.4991 C.2     1  UNL1        0.2495
      2 O         137.8644  143.5703  162.1693 O.2     1  UNL1       -0.2698
      3 N         140.2563  142.8609  161.4448 N.am    1  UNL1       -0.2794
      4 H         141.1290  142.4598  161.6612 H       1  UNL1        0.1552
      5 C         139.9891  143.3734  160.0606 C.ar    1  UNL1        0.0636
      6 C         138.9639  142.7006  159.1966 C.ar    1  UNL1        0.0164
      7 C         138.6967  143.2131  157.8124 C.ar    1  UNL1        0.0073
      8 C         139.4546  144.3986  157.2923 C.ar    1  UNL1        0.0018
      9 C         140.4796  145.0713  158.1563 C.ar    1  UNL1        0.0154
     10 C         140.7469  144.5588  159.5405 C.ar    1  UNL1        0.0552
     11 N         141.7719  145.2316  160.4045 N.pl3   1  UNL1       -0.3560
     12 H         142.2693  146.0096  160.0631 H       1  UNL1        0.1424
     13 H         141.9473  144.8951  161.3130 H       1  UNL1        0.1424
     14 C         137.6717  142.5403  156.9484 C.ar    1  UNL1        0.0295
     15 C         137.1757  141.1330  157.1020 C.ar    1  UNL1        0.0070
     16 C         136.1601  140.8796  156.0276 C.ar    1  UNL1        0.0075
     17 C         136.0284  142.1304  155.2100 C.ar    1  UNL1        0.0354
     18 S         136.9626  143.1567  155.7791 S.2     1  UNL1       -0.0864
     19 C         139.9956  141.4216  166.6515 C.ar    1  UNL1        0.0005
     20 C         139.0222  140.7068  165.7620 C.ar    1  UNL1       -0.0024
     21 C         138.7549  141.2194  164.3779 C.ar    1  UNL1        0.0043
     22 C         139.4612  142.4467  163.8832 C.ar    1  UNL1        0.0537
     23 C         140.4346  143.1616  164.7728 C.ar    1  UNL1        0.0043
     24 C         140.7019  142.6490  166.1569 C.ar    1  UNL1       -0.0024
     25 C         140.2629  140.9090  168.0357 C.3     1  UNL1        0.1514
     26 N         139.2792  139.9907  168.6983 N.3     1  UNL1       -0.3116
     27 H         139.6182  139.7430  169.6279 H       1  UNL1        0.1195
     28 H         139.1734  139.1447  168.1384 H       1  UNL1        0.1195
     29 C         142.7466  142.8992  170.4064 C.3     1  UNL1        0.1150
     30 N         141.4957  142.4935  169.6849 N.am    1  UNL1       -0.2747
     31 C         140.2268  143.2663  169.8909 C.3     1  UNL1        0.1150
     32 C         141.5137  141.3148  168.7572 C.2     1  UNL1        0.2440
     33 O         142.7827  140.5419  168.5512 O.2     1  UNL1       -0.2731
@<TRIPOS>BOND
     1    29    30    1
     2    30    31    1
     3    30    32   am
     4    32    33    2
     5    32    25    1
     6    25    26    1
     7    25    19    1
     8    19    20   ar
     9    20    21   ar
    10    21    22   ar
    11    22     1    1
    12     1     2    2
    13     1     3   am
    14     3     5    1
    15     5     6   ar
    16     6     7   ar
    17     7    14    1
    18    14    15   ar
    19    15    16   ar
    20    16    17   ar
    21    17    18   ar
    22     7     8   ar
    23     8     9   ar
    24     9    10   ar
    25    10    11    1
    26    22    23   ar
    27    23    24   ar
    28    24    19   ar
    29    10     5   ar
    30    18    14   ar
    31    26    27    1
    32    26    28    1
    33     3     4    1
    34    11    12    1
    35    11    13    1
@<TRIPOS>MOLECULE
*****
 33 35 0 0 0
SMALL
GASTEIGER

@<TRIPOS>ATOM
      1 C         142.7189  139.5834  163.9074 C.2     1  UNL1        0.2495
      2 O         143.6074  138.4919  163.3887 O.2     1  UNL1       -0.2698
      3 N         141.8393  140.3471  162.9624 N.am    1  UNL1       -0.2794
      4 H         141.2561  141.0635  163.3028 H       1  UNL1        0.1552
      5 C         141.8482  140.0193  161.4987 C.ar    1  UNL1        0.0636
      6 C         142.8947  140.6136  160.6033 C.ar    1  UNL1        0.0164
      7 C         142.9036  140.2858  159.1396 C.ar    1  UNL1        0.0073
      8 C         141.8660  139.3635  158.5713 C.ar    1  UNL1        0.0018
      9 C         140.8195  138.7692  159.4666 C.ar    1  UNL1        0.0154
     10 C         140.8106  139.0971  160.9303 C.ar    1  UNL1        0.0552
     11 N         139.7642  138.5028  161.8257 N.pl3   1  UNL1       -0.3560
     12 H         139.0832  137.8975  161.4527 H       1  UNL1        0.1424
     13 H         139.7584  138.7180  162.7864 H       1  UNL1        0.1424
     14 C         143.9500  140.8801  158.2442 C.ar    1  UNL1        0.0295
     15 C         144.4837  140.2667  156.9837 C.ar    1  UNL1        0.0070
     16 C         145.5101  141.1996  156.4126 C.ar    1  UNL1        0.0075
     17 C         145.6107  142.3897  157.3202 C.ar    1  UNL1        0.0354
     18 S         144.6466  142.1922  158.4522 S.2     1  UNL1       -0.0864
     19 C         142.6922  140.5670  168.2985 C.ar    1  UNL1        0.0005
     20 C         142.5388  141.6611  167.2839 C.ar    1  UNL1       -0.0024
     21 C         142.5477  141.3332  165.8202 C.ar    1  UNL1        0.0043
     22 C         142.7100  139.9113  165.3711 C.ar    1  UNL1        0.0537
     23 C         142.8634  138.8172  166.3857 C.ar    1  UNL1        0.0043
     24 C         142.8545  139.1451  167.8494 C.ar    1  UNL1       -0.0024
     25 C         142.6833  140.8948  169.7622 C.3     1  UNL1        0.1514
     26 N         143.4800  140.0620  170.7222 N.3     1  UNL1       -0.3116
     27 H         143.3591  140.4242  171.6680 H       1  UNL1        0.1195
     28 H         144.4669  140.0999  170.4672 H       1  UNL1        0.1195
     29 C         139.5841  143.0907  170.9126 C.3     1  UNL1        0.1150
     30 N         140.3898  141.9300  170.4088 N.am    1  UNL1       -0.2747
     31 C         139.7075  140.6438  170.0480 C.3     1  UNL1        0.1150
     32 C         141.8777  142.0555  170.2659 C.2     1  UNL1        0.2440
     33 O         142.5599  143.3417  170.6268 O.2     1  UNL1       -0.2731
@<TRIPOS>BOND
     1    29    30    1
     2    30    31    1
     3    30    32   am
     4    32    33    2
     5    32    25    1
     6    25    26    1
     7    25    19    1
     8    19    20   ar
     9    20    21   ar
    10    21    22   ar
    11    22     1    1
    12     1     2    2
    13     1     3   am
    14     3     5    1
    15     5     6   ar
    16     6     7   ar
    17     7    14    1
    18    14    15   ar
    19    15    16   ar
    20    16    17   ar
    21    17    18   ar
    22     7     8   ar
    23     8     9   ar
    24     9    10   ar
    25    10    11    1
    26    22    23   ar
    27    23    24   ar
    28    24    19   ar
    29    10     5   ar
    30    18    14   ar
    31    26    27    1
    32    26    28    1
    33     3     4    1
    34    11    12    1
    35    11    13    1
@<TRIPOS>MOLECULE
*****
 33 35 0 0 0
SMALL
GASTEIGER

@<TRIPOS>ATOM
      1 C         141.8708  138.4822  159.6496 C.2     1  UNL1        0.2495
      2 O         143.1596  137.9334  160.1861 O.2     1  UNL1       -0.2698
      3 N         141.5257  138.3051  158.2006 N.am    1  UNL1       -0.2794
      4 H         140.6798  138.6652  157.8485 H       1  UNL1        0.1552
      5 C         142.4694  137.5792  157.2882 C.ar    1  UNL1        0.0636
      6 C         142.6281  136.0919  157.4024 C.ar    1  UNL1        0.0164
      7 C         143.5717  135.3661  156.4900 C.ar    1  UNL1        0.0073
      8 C         144.3568  136.1274  155.4633 C.ar    1  UNL1        0.0018
      9 C         144.1981  137.6146  155.3491 C.ar    1  UNL1        0.0154
     10 C         143.2544  138.3405  156.2615 C.ar    1  UNL1        0.0552
     11 N         143.0958  139.8277  156.1473 N.pl3   1  UNL1       -0.3560
     12 H         143.6110  140.3274  155.4734 H       1  UNL1        0.1424
     13 H         142.4764  140.3041  156.7461 H       1  UNL1        0.1424
     14 C         143.7304  133.8789  156.6042 C.ar    1  UNL1        0.0295
     15 C         144.5300  133.1550  157.6467 C.ar    1  UNL1        0.0070
     16 C         144.4111  131.6832  157.3828 C.ar    1  UNL1        0.0075
     17 C         143.5380  131.4975  156.1772 C.ar    1  UNL1        0.0354
     18 S         143.1174  132.8545  155.6961 S.2     1  UNL1       -0.0864
     19 C         139.0397  140.6598  162.3869 C.ar    1  UNL1        0.0005
     20 C         138.9331  139.1722  162.2271 C.ar    1  UNL1       -0.0024
     21 C         139.8768  138.4463  161.3146 C.ar    1  UNL1        0.0043
     22 C         140.9271  139.2081  160.5620 C.ar    1  UNL1        0.0537
     23 C         141.0338  140.6957  160.7218 C.ar    1  UNL1        0.0043
     24 C         140.0901  141.4216  161.6343 C.ar    1  UNL1       -0.0024
     25 C         138.0960  141.3857  163.2993 C.3     1  UNL1        0.1514
     26 N         136.6145  141.2294  163.1244 N.3     1  UNL1       -0.3116
     27 H         136.1285  141.7892  163.8249 H       1  UNL1        0.1195
     28 H         136.3605  140.2480  163.2373 H       1  UNL1        0.1195
     29 C         139.0805  144.6416  165.3438 C.3     1  UNL1        0.1150
     30 N         138.5426  143.7594  164.2563 N.am    1  UNL1       -0.2747
     31 C         137.9136  144.3688  163.0386 C.3     1  UNL1        0.1150
     32 C         138.6338  142.2679  164.3867 C.2     1  UNL1        0.2440
     33 O         139.2629  141.6585  165.6046 O.2     1  UNL1       -0.2731
@<TRIPOS>BOND
     1    29    30    1
     2    30    31    1
     3    30    32   am
     4    32    33    2
     5    32    25    1
     6    25    26    1
     7    25    19    1
     8    19    20   ar
     9    20    21   ar
    10    21    22   ar
    11    22     1    1
    12     1     2    2
    13     1     3   am
    14     3     5    1
    15     5     6   ar
    16     6     7   ar
    17     7    14    1
    18    14    15   ar
    19    15    16   ar
    20    16    17   ar
    21    17    18   ar
    22     7     8   ar
    23     8     9   ar
    24     9    10   ar
    25    10    11    1
    26    22    23   ar
    27    23    24   ar
    28    24    19   ar
    29    10     5   ar
    30    18    14   ar
    31    26    27    1
    32    26    28    1
    33     3     4    1
    34    11    12    1
    35    11    13    1
