@<TRIPOS>MOLECULE
*****
 23 25 0 0 0
SMALL
GASTEIGER

@<TRIPOS>ATOM
      1 C         139.7243  140.4909  168.0761 C.ar    1  UNL1        0.0218
      2 C         138.7872  139.6005  168.8370 C.ar    1  UNL1        0.0989
      3 N         137.7790  138.7689  168.1008 N.ar    1  UNL1       -0.2426
      4 C         137.7080  138.8277  166.6035 C.ar    1  UNL1        0.0959
      5 C         138.6452  139.7181  165.8427 C.ar    1  UNL1        0.0128
      6 C         139.6533  140.5497  166.5790 C.ar    1  UNL1        0.0003
      7 C         142.0904  140.7616  169.1147 C.ar    1  UNL1        0.1409
      8 C         143.0984  141.5932  169.8510 C.ar    1  UNL1        0.0665
      9 C         142.7486  142.9857  170.2851 C.ar    1  UNL1        0.1432
     10 F         143.7568  143.8173  171.0214 F       1  UNL1       -0.2041
     11 C         141.3907  143.5467  169.9829 C.ar    1  UNL1        0.0298
     12 C         140.3826  142.7151  169.2466 C.ar    1  UNL1        0.0054
     13 C         140.7325  141.3225  168.8125 C.ar    1  UNL1        0.0356
     14 C         142.9791  139.1263  167.3020 C.3     1  UNL1        0.2525
     15 O         142.4402  139.3690  168.6806 O.3     1  UNL1       -0.4714
     16 C         138.5742  139.7769  164.3455 C.3     1  UNL1        0.0971
     17 N         137.5524  140.6480  163.6768 N.3     1  UNL1       -0.2948
     18 H         136.6751  140.5112  164.1787 H       1  UNL1        0.1235
     19 C         137.7731  142.1289  163.5863 C.3     1  UNL1        0.0542
     20 C         137.9154  142.9235  162.3220 C.3     1  UNL1        0.0157
     21 C         138.1205  144.3609  162.6984 C.3     1  UNL1        0.0014
     22 C         138.1050  144.4547  164.1954 C.3     1  UNL1        0.0014
     23 C         137.8903  143.0753  164.7441 C.3     1  UNL1        0.0157
@<TRIPOS>BOND
     1    14    15    1
     2    15     7    1
     3     7     8   ar
     4     8     9   ar
     5     9    10    1
     6     9    11   ar
     7    11    12   ar
     8    12    13   ar
     9    13     1    1
    10     1     2   ar
    11     2     3   ar
    12     3     4   ar
    13     4     5   ar
    14     5    16    1
    15    16    17    1
    16    17    19    1
    17    19    20    1
    18    20    21    1
    19    21    22    1
    20    22    23    1
    21     5     6   ar
    22    13     7   ar
    23     6     1   ar
    24    23    19    1
    25    17    18    1
@<TRIPOS>MOLECULE
*****
 23 25 0 0 0
SMALL
GASTEIGER

@<TRIPOS>ATOM
      1 C         139.0617  142.5475  163.6272 C.ar    1  UNL1        0.0218
      2 C         137.9027  143.2306  162.9637 C.ar    1  UNL1        0.0989
      3 N         138.0504  144.6340  162.4552 N.ar    1  UNL1       -0.2426
      4 C         139.3570  145.3543  162.6101 C.ar    1  UNL1        0.0959
      5 C         140.5159  144.6713  163.2737 C.ar    1  UNL1        0.0128
      6 C         140.3682  143.2678  163.7822 C.ar    1  UNL1        0.0003
      7 C         138.8771  139.9965  163.1705 C.ar    1  UNL1        0.1409
      8 C         138.7294  138.5932  163.6791 C.ar    1  UNL1        0.0665
      9 C         138.6187  138.3373  165.1530 C.ar    1  UNL1        0.1432
     10 F         138.4710  136.9338  165.6615 F       1  UNL1       -0.2041
     11 C         138.6556  139.4848  166.1182 C.ar    1  UNL1        0.0298
     12 C         138.8032  140.8882  165.6097 C.ar    1  UNL1        0.0054
     13 C         138.9140  141.1440  164.1358 C.ar    1  UNL1        0.0356
     14 C         137.7814  140.1066  160.8174 C.3     1  UNL1        0.2525
     15 O         138.9879  140.2524  161.6967 O.3     1  UNL1       -0.4714
     16 C         141.8225  145.3915  163.4286 C.3     1  UNL1        0.0971
     17 N         142.9872  145.0283  162.5560 N.3     1  UNL1       -0.2948
     18 H         143.5800  145.8562  162.4966 H       1  UNL1        0.1235
     19 C         143.8792  143.8831  162.9340 C.3     1  UNL1        0.0542
     20 C         144.6038  142.9784  161.9819 C.3     1  UNL1        0.0157
     21 C         145.3756  141.9777  162.7899 C.3     1  UNL1        0.0014
     22 C         145.1280  142.2640  164.2414 C.3     1  UNL1        0.0014
     23 C         144.2032  143.4416  164.3305 C.3     1  UNL1        0.0157
@<TRIPOS>BOND
     1    14    15    1
     2    15     7    1
     3     7     8   ar
     4     8     9   ar
     5     9    10    1
     6     9    11   ar
     7    11    12   ar
     8    12    13   ar
     9    13     1    1
    10     1     2   ar
    11     2     3   ar
    12     3     4   ar
    13     4     5   ar
    14     5    16    1
    15    16    17    1
    16    17    19    1
    17    19    20    1
    18    20    21    1
    19    21    22    1
    20    22    23    1
    21     5     6   ar
    22    13     7   ar
    23     6     1   ar
    24    23    19    1
    25    17    18    1
@<TRIPOS>MOLECULE
*****
 23 25 0 0 0
SMALL
GASTEIGER

@<TRIPOS>ATOM
      1 C         140.6922  142.8572  165.8972 C.ar    1  UNL1        0.0218
      2 C         142.0885  142.8334  165.3497 C.ar    1  UNL1        0.0989
      3 N         142.4096  143.5681  164.0820 N.ar    1  UNL1       -0.2426
      4 C         141.3344  144.3266  163.3618 C.ar    1  UNL1        0.0959
      5 C         139.9381  144.3505  163.9094 C.ar    1  UNL1        0.0128
      6 C         139.6170  143.6157  165.1771 C.ar    1  UNL1        0.0003
      7 C         139.8113  140.7322  167.1049 C.ar    1  UNL1        0.1409
      8 C         139.4902  139.9975  168.3726 C.ar    1  UNL1        0.0665
      9 C         139.7290  140.6531  169.7004 C.ar    1  UNL1        0.1432
     10 F         139.4079  139.9184  170.9682 F       1  UNL1       -0.2041
     11 C         140.2889  142.0434  169.7606 C.ar    1  UNL1        0.0298
     12 C         140.6099  142.7781  168.4928 C.ar    1  UNL1        0.0054
     13 C         140.3711  142.1225  167.1650 C.ar    1  UNL1        0.0356
     14 C         138.3701  139.2022  165.5778 C.3     1  UNL1        0.2525
     15 O         139.5724  140.0766  165.7771 O.3     1  UNL1       -0.4714
     16 C         138.8629  145.1089  163.1892 C.3     1  UNL1        0.0971
     17 N         137.6813  144.3791  162.6227 N.3     1  UNL1       -0.2948
     18 H         137.3694  144.9101  161.8095 H       1  UNL1        0.1235
     19 C         137.8223  142.9528  162.1803 C.3     1  UNL1        0.0542
     20 C         137.3985  141.7423  162.9583 C.3     1  UNL1        0.0157
     21 C         137.7261  140.5279  162.1411 C.3     1  UNL1        0.0014
     22 C         138.3524  140.9878  160.8580 C.3     1  UNL1        0.0014
     23 C         138.4119  142.4864  160.8822 C.3     1  UNL1        0.0157
@<TRIPOS>BOND
     1    14    15    1
     2    15     7    1
     3     7     8   ar
     4     8     9   ar
     5     9    10    1
     6     9    11   ar
     7    11    12   ar
     8    12    13   ar
     9    13     1    1
    10     1     2   ar
    11     2     3   ar
    12     3     4   ar
    13     4     5   ar
    14     5    16    1
    15    16    17    1
    16    17    19    1
    17    19    20    1
    18    20    21    1
    19    21    22    1
    20    22    23    1
    21     5     6   ar
    22    13     7   ar
    23     6     1   ar
    24    23    19    1
    25    17    18    1
@<TRIPOS>MOLECULE
*****
 23 25 0 0 0
SMALL
GASTEIGER

@<TRIPOS>ATOM
      1 C         143.5561  142.2356  165.0999 C.ar    1  UNL1        0.0218
      2 C         144.8054  141.8633  164.3580 C.ar    1  UNL1        0.0989
      3 N         145.1565  142.5662  163.0803 N.ar    1  UNL1       -0.2426
      4 C         144.2582  143.6414  162.5444 C.ar    1  UNL1        0.0959
      5 C         143.0088  144.0136  163.2863 C.ar    1  UNL1        0.0128
      6 C         142.6577  143.3107  164.5641 C.ar    1  UNL1        0.0003
      7 C         142.8138  140.0847  166.3542 C.ar    1  UNL1        0.1409
      8 C         142.4627  139.3819  167.6319 C.ar    1  UNL1        0.0665
      9 C         142.5029  140.1269  168.9332 C.ar    1  UNL1        0.1432
     10 F         142.1519  139.4239  170.2110 F       1  UNL1       -0.2041
     11 C         142.8941  141.5747  168.9568 C.ar    1  UNL1        0.0298
     12 C         143.2452  142.2776  167.6790 C.ar    1  UNL1        0.0054
     13 C         143.2050  141.5326  166.3777 C.ar    1  UNL1        0.0356
     14 C         141.9873  138.0673  164.9411 C.3     1  UNL1        0.2525
     15 O         142.7736  139.3398  165.0529 O.3     1  UNL1       -0.4714
     16 C         142.1105  145.0887  162.7505 C.3     1  UNL1        0.0971
     17 N         141.0511  145.6871  163.6278 N.3     1  UNL1       -0.2948
     18 H         140.8743  146.6280  163.2759 H       1  UNL1        0.1235
     19 C         139.7163  145.0150  163.7567 C.3     1  UNL1        0.0542
     20 C         138.8938  144.4645  162.6296 C.3     1  UNL1        0.0157
     21 C         137.6388  143.8847  163.2116 C.3     1  UNL1        0.0014
     22 C         137.6856  144.0769  164.6986 C.3     1  UNL1        0.0014
     23 C         138.9696  144.7755  165.0354 C.3     1  UNL1        0.0157
@<TRIPOS>BOND
     1    14    15    1
     2    15     7    1
     3     7     8   ar
     4     8     9   ar
     5     9    10    1
     6     9    11   ar
     7    11    12   ar
     8    12    13   ar
     9    13     1    1
    10     1     2   ar
    11     2     3   ar
    12     3     4   ar
    13     4     5   ar
    14     5    16    1
    15    16    17    1
    16    17    19    1
    17    19    20    1
    18    20    21    1
    19    21    22    1
    20    22    23    1
    21     5     6   ar
    22    13     7   ar
    23     6     1   ar
    24    23    19    1
    25    17    18    1
@<TRIPOS>MOLECULE
*****
 23 25 0 0 0
SMALL
GASTEIGER

@<TRIPOS>ATOM
      1 C         140.1610  138.8994  165.0074 C.ar    1  UNL1        0.0218
      2 C         140.7222  137.6570  164.3818 C.ar    1  UNL1        0.0989
      3 N         140.2722  137.2371  163.0139 N.ar    1  UNL1       -0.2426
      4 C         139.2609  138.0595  162.2716 C.ar    1  UNL1        0.0959
      5 C         138.6997  139.3019  162.8973 C.ar    1  UNL1        0.0128
      6 C         139.1497  139.7219  164.2652 C.ar    1  UNL1        0.0003
      7 C         142.0751  139.3982  166.6919 C.ar    1  UNL1        0.1409
      8 C         142.5251  139.8182  168.0598 C.ar    1  UNL1        0.0665
      9 C         141.5110  140.1592  169.1111 C.ar    1  UNL1        0.1432
     10 F         141.9611  140.5792  170.4791 F       1  UNL1       -0.2041
     11 C         140.0469  140.0803  168.7946 C.ar    1  UNL1        0.0298
     12 C         139.5970  139.6604  167.4267 C.ar    1  UNL1        0.0054
     13 C         140.6110  139.3194  166.3754 C.ar    1  UNL1        0.0356
     14 C         143.8079  140.1516  164.9087 C.3     1  UNL1        0.2525
     15 O         143.0892  139.0572  165.6406 O.3     1  UNL1       -0.4714
     16 C         137.6884  140.1244  162.1551 C.3     1  UNL1        0.0971
     17 N         136.8904  141.1663  162.8814 N.3     1  UNL1       -0.2948
     18 H         136.6177  140.7582  163.7754 H       1  UNL1        0.1235
     19 C         137.5009  142.5028  163.1837 C.3     1  UNL1        0.0542
     20 C         138.0487  143.4700  162.1765 C.3     1  UNL1        0.0157
     21 C         138.5571  144.6716  162.9166 C.3     1  UNL1        0.0014
     22 C         138.3234  144.4470  164.3812 C.3     1  UNL1        0.0014
     23 C         137.6707  143.1066  164.5462 C.3     1  UNL1        0.0157
@<TRIPOS>BOND
     1    14    15    1
     2    15     7    1
     3     7     8   ar
     4     8     9   ar
     5     9    10    1
     6     9    11   ar
     7    11    12   ar
     8    12    13   ar
     9    13     1    1
    10     1     2   ar
    11     2     3   ar
    12     3     4   ar
    13     4     5   ar
    14     5    16    1
    15    16    17    1
    16    17    19    1
    17    19    20    1
    18    20    21    1
    19    21    22    1
    20    22    23    1
    21     5     6   ar
    22    13     7   ar
    23     6     1   ar
    24    23    19    1
    25    17    18    1
@<TRIPOS>MOLECULE
*****
 23 25 0 0 0
SMALL
GASTEIGER

@<TRIPOS>ATOM
      1 C         140.7928  141.8191  166.5043 C.ar    1  UNL1        0.0218
      2 C         140.8890  141.9038  167.9988 C.ar    1  UNL1        0.0989
      3 N         140.0781  140.9781  168.8562 N.ar    1  UNL1       -0.2426
      4 C         139.1709  139.9674  168.2192 C.ar    1  UNL1        0.0959
      5 C         139.0748  139.8826  166.7247 C.ar    1  UNL1        0.0128
      6 C         139.8858  140.8085  165.8672 C.ar    1  UNL1        0.0003
      7 C         140.9171  143.7516  164.7722 C.ar    1  UNL1        0.1409
      8 C         141.7281  144.6774  163.9148 C.ar    1  UNL1        0.0665
      9 C         143.2258  144.5965  163.9320 C.ar    1  UNL1        0.1432
     10 F         144.0368  145.5223  163.0746 F       1  UNL1       -0.2041
     11 C         143.9126  143.5898  164.8066 C.ar    1  UNL1        0.0298
     12 C         143.1016  142.6640  165.6640 C.ar    1  UNL1        0.0054
     13 C         141.6038  142.7449  165.6468 C.ar    1  UNL1        0.0356
     14 C         138.7179  144.9143  165.5215 C.3     1  UNL1        0.2525
     15 O         139.4194  143.8325  164.7550 O.3     1  UNL1       -0.4714
     16 C         138.1677  138.8721  166.0876 C.3     1  UNL1        0.0971
     17 N         138.7381  137.6101  165.5115 N.3     1  UNL1       -0.2948
     18 H         137.9543  136.9753  165.3593 H       1  UNL1        0.1235
     19 C         139.5143  137.6551  164.2286 C.3     1  UNL1        0.0542
     20 C         138.9708  138.0314  162.8821 C.3     1  UNL1        0.0157
     21 C         140.0907  137.9406  161.8883 C.3     1  UNL1        0.0014
     22 C         141.3263  137.5082  162.6207 C.3     1  UNL1        0.0014
     23 C         140.9700  137.3318  164.0671 C.3     1  UNL1        0.0157
@<TRIPOS>BOND
     1    14    15    1
     2    15     7    1
     3     7     8   ar
     4     8     9   ar
     5     9    10    1
     6     9    11   ar
     7    11    12   ar
     8    12    13   ar
     9    13     1    1
    10     1     2   ar
    11     2     3   ar
    12     3     4   ar
    13     4     5   ar
    14     5    16    1
    15    16    17    1
    16    17    19    1
    17    19    20    1
    18    20    21    1
    19    21    22    1
    20    22    23    1
    21     5     6   ar
    22    13     7   ar
    23     6     1   ar
    24    23    19    1
    25    17    18    1
@<TRIPOS>MOLECULE
*****
 23 25 0 0 0
SMALL
GASTEIGER

@<TRIPOS>ATOM
      1 C         139.5031  140.0175  165.9152 C.ar    1  UNL1        0.0218
      2 C         138.3702  140.4518  165.0332 C.ar    1  UNL1        0.0989
      3 N         138.1843  139.8203  163.6854 N.ar    1  UNL1       -0.2426
      4 C         139.1314  138.7543  163.2195 C.ar    1  UNL1        0.0959
      5 C         140.2643  138.3200  164.1015 C.ar    1  UNL1        0.0128
      6 C         140.4502  138.9517  165.4494 C.ar    1  UNL1        0.0003
      7 C         140.3957  141.9668  167.3828 C.ar    1  UNL1        0.1409
      8 C         140.5815  142.5983  168.7306 C.ar    1  UNL1        0.0665
      9 C         140.0605  141.9123  169.9586 C.ar    1  UNL1        0.1432
     10 F         140.2464  142.5439  171.3064 F       1  UNL1       -0.2041
     11 C         139.3538  140.5947  169.8388 C.ar    1  UNL1        0.0298
     12 C         139.1680  139.9631  168.4910 C.ar    1  UNL1        0.0054
     13 C         139.6889  140.6492  167.2630 C.ar    1  UNL1        0.0356
     14 C         142.3395  142.4467  165.7271 C.3     1  UNL1        0.2525
     15 O         140.9166  142.6528  166.1548 O.3     1  UNL1       -0.4714
     16 C         141.2114  137.2542  163.6357 C.3     1  UNL1        0.0971
     17 N         142.3064  137.5943  162.6687 N.3     1  UNL1       -0.2948
     18 H         141.8544  137.8638  161.7949 H       1  UNL1        0.1235
     19 C         143.2895  138.6779  162.9997 C.3     1  UNL1        0.0542
     20 C         143.7897  139.7324  162.0575 C.3     1  UNL1        0.0157
     21 C         144.7544  140.6034  162.8064 C.3     1  UNL1        0.0014
     22 C         144.8503  140.0871  164.2115 C.3     1  UNL1        0.0014
     23 C         143.9450  138.8971  164.3310 C.3     1  UNL1        0.0157
@<TRIPOS>BOND
     1    14    15    1
     2    15     7    1
     3     7     8   ar
     4     8     9   ar
     5     9    10    1
     6     9    11   ar
     7    11    12   ar
     8    12    13   ar
     9    13     1    1
    10     1     2   ar
    11     2     3   ar
    12     3     4   ar
    13     4     5   ar
    14     5    16    1
    15    16    17    1
    16    17    19    1
    17    19    20    1
    18    20    21    1
    19    21    22    1
    20    22    23    1
    21     5     6   ar
    22    13     7   ar
    23     6     1   ar
    24    23    19    1
    25    17    18    1
@<TRIPOS>MOLECULE
*****
 23 25 0 0 0
SMALL
GASTEIGER

@<TRIPOS>ATOM
      1 C         139.6743  141.3098  166.1151 C.ar    1  UNL1        0.0218
      2 C         138.7489  140.4840  165.2716 C.ar    1  UNL1        0.0989
      3 N         137.9293  141.1366  164.1981 N.ar    1  UNL1       -0.2426
      4 C         138.0352  142.6152  163.9682 C.ar    1  UNL1        0.0959
      5 C         138.9606  143.4410  164.8117 C.ar    1  UNL1        0.0128
      6 C         139.7802  142.7883  165.8852 C.ar    1  UNL1        0.0003
      7 C         141.8632  140.1327  166.8724 C.ar    1  UNL1        0.1409
      8 C         142.6827  139.4801  167.9459 C.ar    1  UNL1        0.0665
      9 C         142.1329  139.3517  169.3356 C.ar    1  UNL1        0.1432
     10 F         142.9524  138.6990  170.4091 F       1  UNL1       -0.2041
     11 C         140.7636  139.8761  169.6518 C.ar    1  UNL1        0.0298
     12 C         139.9441  140.5288  168.5783 C.ar    1  UNL1        0.0054
     13 C         140.4939  140.6571  167.1886 C.ar    1  UNL1        0.0356
     14 C         143.5410  141.2105  165.2072 C.3     1  UNL1        0.2525
     15 O         142.4130  140.2611  165.4827 O.3     1  UNL1       -0.4714
     16 C         139.0665  144.9194  164.5818 C.3     1  UNL1        0.0971
     17 N         139.8602  145.4431  163.4218 N.3     1  UNL1       -0.2948
     18 H         139.9605  146.4482  163.5634 H       1  UNL1        0.1235
     19 C         141.2335  144.9050  163.1488 C.3     1  UNL1        0.0542
     20 C         142.4928  145.2994  163.8620 C.3     1  UNL1        0.0157
     21 C         143.6263  144.5163  163.2687 C.3     1  UNL1        0.0014
     22 C         143.0675  143.6380  162.1887 C.3     1  UNL1        0.0014
     23 C         141.5887  143.8782  162.1146 C.3     1  UNL1        0.0157
@<TRIPOS>BOND
     1    14    15    1
     2    15     7    1
     3     7     8   ar
     4     8     9   ar
     5     9    10    1
     6     9    11   ar
     7    11    12   ar
     8    12    13   ar
     9    13     1    1
    10     1     2   ar
    11     2     3   ar
    12     3     4   ar
    13     4     5   ar
    14     5    16    1
    15    16    17    1
    16    17    19    1
    17    19    20    1
    18    20    21    1
    19    21    22    1
    20    22    23    1
    21     5     6   ar
    22    13     7   ar
    23     6     1   ar
    24    23    19    1
    25    17    18    1
@<TRIPOS>MOLECULE
*****
 23 25 0 0 0
SMALL
GASTEIGER

@<TRIPOS>ATOM
      1 C         141.9996  141.5978  165.5204 C.ar    1  UNL1        0.0218
      2 C         142.4767  140.6755  164.4379 C.ar    1  UNL1        0.0989
      3 N         142.8979  141.2320  163.1102 N.ar    1  UNL1       -0.2426
      4 C         142.8420  142.7108  162.8649 C.ar    1  UNL1        0.0959
      5 C         142.3650  143.6331  163.9474 C.ar    1  UNL1        0.0128
      6 C         141.9438  143.0765  165.2752 C.ar    1  UNL1        0.0003
      7 C         140.1284  140.7733  167.1232 C.ar    1  UNL1        0.1409
      8 C         139.7073  140.2168  168.4509 C.ar    1  UNL1        0.0665
      9 C         140.7361  139.9283  169.5037 C.ar    1  UNL1        0.1432
     10 F         140.3149  139.3717  170.8314 F       1  UNL1       -0.2041
     11 C         142.1861  140.1963  169.2287 C.ar    1  UNL1        0.0298
     12 C         142.6073  140.7528  167.9010 C.ar    1  UNL1        0.0054
     13 C         141.5784  141.0413  166.8482 C.ar    1  UNL1        0.0356
     14 C         138.4019  139.9313  165.3739 C.3     1  UNL1        0.2525
     15 O         139.0996  141.0618  166.0705 O.3     1  UNL1       -0.4714
     16 C         142.3091  145.1118  163.7022 C.3     1  UNL1        0.0971
     17 N         141.0030  145.7670  163.3635 N.3     1  UNL1       -0.2948
     18 H         141.0484  146.0215  162.3768 H       1  UNL1        0.1235
     19 C         139.7165  145.0209  163.5595 C.3     1  UNL1        0.0542
     20 C         138.9396  144.3077  162.4929 C.3     1  UNL1        0.0157
     21 C         137.7240  143.7031  163.1307 C.3     1  UNL1        0.0014
     22 C         137.7497  144.0427  164.5916 C.3     1  UNL1        0.0014
     23 C         138.9811  144.8572  164.8566 C.3     1  UNL1        0.0157
@<TRIPOS>BOND
     1    14    15    1
     2    15     7    1
     3     7     8   ar
     4     8     9   ar
     5     9    10    1
     6     9    11   ar
     7    11    12   ar
     8    12    13   ar
     9    13     1    1
    10     1     2   ar
    11     2     3   ar
    12     3     4   ar
    13     4     5   ar
    14     5    16    1
    15    16    17    1
    16    17    19    1
    17    19    20    1
    18    20    21    1
    19    21    22    1
    20    22    23    1
    21     5     6   ar
    22    13     7   ar
    23     6     1   ar
    24    23    19    1
    25    17    18    1
