@<TRIPOS>MOLECULE
*****
 44 48 0 0 0
SMALL
GASTEIGER

@<TRIPOS>ATOM
      1 C         138.3258  141.6719  157.6867 C.3     1  UNL1        0.0317
      2 C         138.8382  140.3179  157.2943 C.ar    1  UNL1       -0.0141
      3 C         138.7379  139.8622  155.8687 C.ar    1  UNL1       -0.0024
      4 C         139.2502  138.5083  155.4763 C.ar    1  UNL1        0.0144
      5 C         139.8630  137.6097  156.5094 C.ar    1  UNL1        0.0511
      6 C         139.9633  138.0654  157.9350 C.ar    1  UNL1        0.0226
      7 C         139.4509  139.4195  158.3274 C.ar    1  UNL1        0.0393
      8 N         140.3754  136.2557  156.1170 N.am    1  UNL1       -0.2804
      9 C         141.8519  135.9942  156.0805 C.2     1  UNL1        0.2495
     10 O         142.8161  137.0868  156.4364 O.2     1  UNL1       -0.2698
     11 H         139.7425  135.5386  155.8834 H       1  UNL1        0.1552
     12 C         142.3643  134.6402  155.6881 C.ar    1  UNL1        0.0537
     13 C         142.1864  134.1495  154.2818 C.ar    1  UNL1        0.0054
     14 C         142.6988  132.7955  153.8894 C.ar    1  UNL1        0.0115
     15 C         143.3891  131.9320  154.9033 C.ar    1  UNL1        0.0616
     16 CL        143.9015  130.5780  154.5108 Cl      1  UNL1       -0.0823
     17 C         143.5671  132.4226  156.3095 C.ar    1  UNL1        0.0821
     18 C         143.0546  133.7767  156.7019 C.ar    1  UNL1        0.0092
     19 C         144.2573  131.5593  157.3235 C.3     1  UNL1        0.4194
     20 F         144.9477  130.6959  158.3374 F       1  UNL1       -0.1658
     21 F         142.9533  130.8894  157.6410 F       1  UNL1       -0.1658
     22 F         145.5614  132.2291  157.0060 F       1  UNL1       -0.1658
     23 C         139.5512  139.8751  159.7530 C.1     1  UNL1       -0.0585
     24 C         139.6516  140.3308  161.1786 C.1     1  UNL1       -0.0386
     25 C         139.7519  140.7865  162.6042 C.ar    1  UNL1        0.1481
     26 N         140.3409  140.0042  163.7405 N.ar    1  UNL1       -0.1595
     27 N         140.2339  140.8387  164.9823 N.ar    1  UNL1       -0.2353
     28 C         139.5787  142.1367  164.6136 C.ar    1  UNL1        0.1659
     29 N         139.2149  143.3438  165.4262 N.ar    1  UNL1       -0.2050
     30 C         138.5532  144.5187  164.7690 C.ar    1  UNL1        0.2014
     31 N         138.2554  144.4864  163.2993 N.ar    1  UNL1       -0.2093
     32 C         138.6192  143.2793  162.4866 C.ar    1  UNL1        0.1322
     33 N         138.3214  143.2470  161.0169 N.pl3   1  UNL1       -0.3424
     34 C         139.2809  142.1044  163.1438 C.ar    1  UNL1        0.0938
     35 H         137.8871  144.0181  160.5855 H       1  UNL1        0.1437
     36 H         138.5602  142.4547  160.4835 H       1  UNL1        0.1437
     37 C         140.7001  140.4444  166.3524 C.3     1  UNL1        0.1070
     38 C         142.1237  140.0236  166.5681 C.3     1  UNL1        0.0269
     39 C         142.5899  139.6294  167.9382 C.3     1  UNL1        0.0312
     40 C         141.6326  139.6559  169.0927 C.3     1  UNL1        0.1107
     41 O         142.0988  139.2616  170.4628 O.3     1  UNL1       -0.3845
     42 C         140.2091  140.0767  168.8770 C.3     1  UNL1        0.0312
     43 C         139.7429  140.4709  167.5069 C.3     1  UNL1        0.0269
     44 H         141.3613  139.3341  171.0886 H       1  UNL1        0.2103
@<TRIPOS>BOND
     1     1     2    1
     2     2     3   ar
     3     3     4   ar
     4     4     5   ar
     5     5     8    1
     6     8     9   am
     7     9    10    2
     8     9    12    1
     9    12    13   ar
    10    13    14   ar
    11    14    15   ar
    12    15    16    1
    13    15    17   ar
    14    17    19    1
    15    19    20    1
    16    19    21    1
    17    19    22    1
    18    17    18   ar
    19     5     6   ar
    20     6     7   ar
    21     7    23    1
    22    23    24    3
    23    24    25    1
    24    25    26   ar
    25    26    27   ar
    26    37    27    1
    27    37    38    1
    28    38    39    1
    29    39    40    1
    30    40    41    1
    31    40    42    1
    32    42    43    1
    33    27    28   ar
    34    28    29   ar
    35    29    30   ar
    36    30    31   ar
    37    31    32   ar
    38    32    33    1
    39    32    34   ar
    40     7     2   ar
    41    34    25   ar
    42    18    12   ar
    43    43    37    1
    44    34    28   ar
    45     8    11    1
    46    41    44    1
    47    33    35    1
    48    33    36    1
@<TRIPOS>MOLECULE
*****
 44 48 0 0 0
SMALL
GASTEIGER

@<TRIPOS>ATOM
      1 C         144.1878  142.0953  158.5338 C.3     1  UNL1        0.0317
      2 C         144.1612  141.8158  160.0073 C.ar    1  UNL1       -0.0141
      3 C         144.5852  142.8763  160.9796 C.ar    1  UNL1       -0.0024
      4 C         144.5587  142.5969  162.4530 C.ar    1  UNL1        0.0144
      5 C         144.1081  141.2568  162.9543 C.ar    1  UNL1        0.0511
      6 C         143.6840  140.1962  161.9819 C.ar    1  UNL1        0.0226
      7 C         143.7106  140.4758  160.5085 C.ar    1  UNL1        0.0393
      8 N         144.0815  140.9773  164.4278 N.am    1  UNL1       -0.2804
      9 C         142.8445  141.2694  165.2243 C.2     1  UNL1        0.2495
     10 O         141.6342  141.8411  164.5475 O.2     1  UNL1       -0.2698
     11 H         144.8759  140.6020  164.8720 H       1  UNL1        0.1552
     12 C         142.8179  140.9899  166.6978 C.ar    1  UNL1        0.0537
     13 C         142.5240  139.6050  167.1933 C.ar    1  UNL1        0.0054
     14 C         142.4974  139.3255  168.6668 C.ar    1  UNL1        0.0115
     15 C         142.7648  140.4309  169.6449 C.ar    1  UNL1        0.0616
     16 CL        142.7382  140.1514  171.1183 Cl      1  UNL1       -0.0823
     17 C         143.0587  141.8159  169.1494 C.ar    1  UNL1        0.0821
     18 C         143.0853  142.0954  167.6759 C.ar    1  UNL1        0.0092
     19 C         143.3261  142.9213  170.1273 C.3     1  UNL1        0.4194
     20 F         143.5933  144.0269  171.1053 F       1  UNL1       -0.1658
     21 F         144.7876  142.5844  170.1088 F       1  UNL1       -0.1658
     22 F         141.8645  143.2583  170.1459 F       1  UNL1       -0.1658
     23 C         143.2866  139.4152  159.5361 C.1     1  UNL1       -0.0585
     24 C         142.8625  138.3547  158.5637 C.1     1  UNL1       -0.0386
     25 C         142.4385  137.2941  157.5914 C.ar    1  UNL1        0.1481
     26 N         143.0054  135.9088  157.4950 N.ar    1  UNL1       -0.1595
     27 N         142.2904  135.1913  156.3888 N.ar    1  UNL1       -0.2353
     28 C         141.2815  136.1331  155.8014 C.ar    1  UNL1        0.1659
     29 N         140.2913  135.9753  154.6858 N.ar    1  UNL1       -0.2050
     30 C         139.3927  137.1171  154.3135 C.ar    1  UNL1        0.2014
     31 N         139.4842  138.4168  155.0568 N.ar    1  UNL1       -0.2093
     32 C         140.4744  138.5746  156.1724 C.ar    1  UNL1        0.1322
     33 N         140.5659  139.8743  156.9156 N.pl3   1  UNL1       -0.3424
     34 C         141.3730  137.4328  156.5447 C.ar    1  UNL1        0.0938
     35 H         139.9761  140.6237  156.6712 H       1  UNL1        0.1437
     36 H         141.2158  139.9779  157.6478 H       1  UNL1        0.1437
     37 C         142.5403  133.7796  155.9473 C.3     1  UNL1        0.1070
     38 C         143.9258  133.2081  156.0109 C.3     1  UNL1        0.0269
     39 C         144.1757  131.7964  155.5695 C.3     1  UNL1        0.0312
     40 C         143.0403  130.9564  155.0645 C.3     1  UNL1        0.1107
     41 O         143.2902  129.5447  154.6230 O.3     1  UNL1       -0.3845
     42 C         141.6549  131.5279  155.0009 C.3     1  UNL1        0.0312
     43 C         141.4050  132.9395  155.4424 C.3     1  UNL1        0.0269
     44 H         142.4567  129.1459  154.3277 H       1  UNL1        0.2103
@<TRIPOS>BOND
     1     1     2    1
     2     2     3   ar
     3     3     4   ar
     4     4     5   ar
     5     5     8    1
     6     8     9   am
     7     9    10    2
     8     9    12    1
     9    12    13   ar
    10    13    14   ar
    11    14    15   ar
    12    15    16    1
    13    15    17   ar
    14    17    19    1
    15    19    20    1
    16    19    21    1
    17    19    22    1
    18    17    18   ar
    19     5     6   ar
    20     6     7   ar
    21     7    23    1
    22    23    24    3
    23    24    25    1
    24    25    26   ar
    25    26    27   ar
    26    37    27    1
    27    37    38    1
    28    38    39    1
    29    39    40    1
    30    40    41    1
    31    40    42    1
    32    42    43    1
    33    27    28   ar
    34    28    29   ar
    35    29    30   ar
    36    30    31   ar
    37    31    32   ar
    38    32    33    1
    39    32    34   ar
    40     7     2   ar
    41    34    25   ar
    42    18    12   ar
    43    43    37    1
    44    34    28   ar
    45     8    11    1
    46    41    44    1
    47    33    35    1
    48    33    36    1
@<TRIPOS>MOLECULE
*****
 44 48 0 0 0
SMALL
GASTEIGER

@<TRIPOS>ATOM
      1 C         143.2718  142.9391  158.6342 C.3     1  UNL1        0.0317
      2 C         143.0697  141.5298  158.1618 C.ar    1  UNL1       -0.0141
      3 C         143.3837  141.1625  156.7417 C.ar    1  UNL1       -0.0024
      4 C         143.1816  139.7533  156.2693 C.ar    1  UNL1        0.0144
      5 C         142.6655  138.7113  157.2169 C.ar    1  UNL1        0.0511
      6 C         142.3516  139.0786  158.6370 C.ar    1  UNL1        0.0226
      7 C         142.5537  140.4879  159.1094 C.ar    1  UNL1        0.0393
      8 N         142.4634  137.3020  156.7445 N.am    1  UNL1       -0.2804
      9 C         143.5481  136.6052  155.9778 C.2     1  UNL1        0.2495
     10 O         144.8349  137.3176  155.6835 O.2     1  UNL1       -0.2698
     11 H         141.6189  136.8345  156.9377 H       1  UNL1        0.1552
     12 C         143.3460  135.1960  155.5055 C.ar    1  UNL1        0.0537
     13 C         142.6720  134.9348  154.1912 C.ar    1  UNL1        0.0054
     14 C         142.4699  133.5256  153.7188 C.ar    1  UNL1        0.0115
     15 C         142.9419  132.3774  154.5607 C.ar    1  UNL1        0.0616
     16 CL        142.7398  130.9681  154.0883 Cl      1  UNL1       -0.0823
     17 C         143.6160  132.6384  155.8750 C.ar    1  UNL1        0.0821
     18 C         143.8180  134.0477  156.3474 C.ar    1  UNL1        0.0092
     19 C         144.0880  131.4903  156.7170 C.3     1  UNL1        0.4194
     20 F         144.5601  130.3422  157.5590 F       1  UNL1       -0.1658
     21 F         142.7107  131.3467  157.2936 F       1  UNL1       -0.1658
     22 F         145.4653  131.6339  156.1405 F       1  UNL1       -0.1658
     23 C         142.2397  140.8552  160.5294 C.1     1  UNL1       -0.0585
     24 C         141.9257  141.2226  161.9494 C.1     1  UNL1       -0.0386
     25 C         141.6118  141.5899  163.3695 C.ar    1  UNL1        0.1481
     26 N         142.1937  140.9501  164.5950 N.ar    1  UNL1       -0.1595
     27 N         141.6023  141.6263  165.7962 N.ar    1  UNL1       -0.2353
     28 C         140.6549  142.6842  165.3131 C.ar    1  UNL1        0.1659
     29 N         139.7876  143.6649  166.0451 N.ar    1  UNL1       -0.2050
     30 C         138.9262  144.6233  165.2773 C.ar    1  UNL1        0.2014
     31 N         138.9321  144.6008  163.7774 N.ar    1  UNL1       -0.2093
     32 C         139.7993  143.6200  163.0454 C.ar    1  UNL1        0.1322
     33 N         139.8052  143.5975  161.5456 N.pl3   1  UNL1       -0.3424
     34 C         140.6607  142.6617  163.8133 C.ar    1  UNL1        0.0938
     35 H         139.2398  144.2265  161.0417 H       1  UNL1        0.1437
     36 H         140.3744  142.9538  161.0652 H       1  UNL1        0.1437
     37 C         141.9051  141.3018  167.2290 C.3     1  UNL1        0.1070
     38 C         142.9141  142.1146  167.9851 C.3     1  UNL1        0.0269
     39 C         143.2169  141.7900  169.4179 C.3     1  UNL1        0.0312
     40 C         142.5109  140.6527  170.0947 C.3     1  UNL1        0.1107
     41 O         142.8137  140.3282  171.5275 O.3     1  UNL1       -0.3845
     42 C         141.5020  139.8400  169.3386 C.3     1  UNL1        0.0312
     43 C         141.1992  140.1645  167.9058 C.3     1  UNL1        0.0269
     44 H         142.2753  139.5718  171.8084 H       1  UNL1        0.2103
@<TRIPOS>BOND
     1     1     2    1
     2     2     3   ar
     3     3     4   ar
     4     4     5   ar
     5     5     8    1
     6     8     9   am
     7     9    10    2
     8     9    12    1
     9    12    13   ar
    10    13    14   ar
    11    14    15   ar
    12    15    16    1
    13    15    17   ar
    14    17    19    1
    15    19    20    1
    16    19    21    1
    17    19    22    1
    18    17    18   ar
    19     5     6   ar
    20     6     7   ar
    21     7    23    1
    22    23    24    3
    23    24    25    1
    24    25    26   ar
    25    26    27   ar
    26    37    27    1
    27    37    38    1
    28    38    39    1
    29    39    40    1
    30    40    41    1
    31    40    42    1
    32    42    43    1
    33    27    28   ar
    34    28    29   ar
    35    29    30   ar
    36    30    31   ar
    37    31    32   ar
    38    32    33    1
    39    32    34   ar
    40     7     2   ar
    41    34    25   ar
    42    18    12   ar
    43    43    37    1
    44    34    28   ar
    45     8    11    1
    46    41    44    1
    47    33    35    1
    48    33    36    1
@<TRIPOS>MOLECULE
*****
 44 48 0 0 0
SMALL
GASTEIGER

@<TRIPOS>ATOM
      1 C         139.8502  142.1714  158.6821 C.3     1  UNL1        0.0317
      2 C         140.1291  140.7971  158.1497 C.ar    1  UNL1       -0.0141
      3 C         139.8313  140.4737  156.7156 C.ar    1  UNL1       -0.0024
      4 C         140.1101  139.0994  156.1831 C.ar    1  UNL1        0.0144
      5 C         140.6868  138.0484  157.0848 C.ar    1  UNL1        0.0511
      6 C         140.9845  138.3718  158.5189 C.ar    1  UNL1        0.0226
      7 C         140.7057  139.7461  159.0513 C.ar    1  UNL1        0.0393
      8 N         140.9656  136.6741  156.5524 N.am    1  UNL1       -0.2804
      9 C         142.3775  136.2482  156.2782 C.2     1  UNL1        0.2495
     10 O         143.5106  137.1967  156.5364 O.2     1  UNL1       -0.2698
     11 H         140.2220  136.0516  156.3829 H       1  UNL1        0.1552
     12 C         142.6564  134.8739  155.7458 C.ar    1  UNL1        0.0537
     13 C         142.2563  134.5168  154.3450 C.ar    1  UNL1        0.0054
     14 C         142.5351  133.1425  153.8125 C.ar    1  UNL1        0.0115
     15 C         143.2141  132.1252  154.6810 C.ar    1  UNL1        0.0616
     16 CL        143.4930  130.7509  154.1485 Cl      1  UNL1       -0.0823
     17 C         143.6143  132.4823  156.0818 C.ar    1  UNL1        0.0821
     18 C         143.3354  133.8567  156.6142 C.ar    1  UNL1        0.0092
     19 C         144.2932  131.4651  156.9503 C.3     1  UNL1        0.4194
     20 F         144.9721  130.4479  157.8188 F       1  UNL1       -0.1658
     21 F         145.6299  132.0166  156.5513 F       1  UNL1       -0.1658
     22 F         142.9566  130.9136  157.3493 F       1  UNL1       -0.1658
     23 C         141.0034  140.0696  160.4855 C.1     1  UNL1       -0.0585
     24 C         141.3011  140.3929  161.9197 C.1     1  UNL1       -0.0386
     25 C         141.5989  140.7163  163.3538 C.ar    1  UNL1        0.1481
     26 N         140.9137  140.1273  164.5511 N.ar    1  UNL1       -0.1595
     27 N         141.5255  140.7325  165.7796 N.ar    1  UNL1       -0.2353
     28 C         142.5888  141.6956  165.3417 C.ar    1  UNL1        0.1659
     29 N         143.5216  142.5804  166.1144 N.ar    1  UNL1       -0.2050
     30 C         144.4997  143.4552  165.3878 C.ar    1  UNL1        0.2014
     31 N         144.5451  143.4452  163.8885 N.ar    1  UNL1       -0.2093
     32 C         143.6123  142.5604  163.1158 C.ar    1  UNL1        0.1322
     33 N         143.6577  142.5504  161.6165 N.pl3   1  UNL1       -0.3424
     34 C         142.6342  141.6856  163.8424 C.ar    1  UNL1        0.0938
     35 H         144.2997  143.1245  161.1397 H       1  UNL1        0.1437
     36 H         143.0455  141.9697  161.1094 H       1  UNL1        0.1437
     37 C         141.1414  140.4281  167.1973 C.3     1  UNL1        0.1070
     38 C         139.7097  140.5476  167.6287 C.3     1  UNL1        0.0269
     39 C         139.3256  140.2432  169.0464 C.3     1  UNL1        0.0312
     40 C         140.3732  139.8193  170.0327 C.3     1  UNL1        0.1107
     41 O         139.9891  139.5149  171.4504 O.3     1  UNL1       -0.3845
     42 C         141.8048  139.6999  169.6014 C.3     1  UNL1        0.0312
     43 C         142.1889  140.0043  168.1837 C.3     1  UNL1        0.0269
     44 H         140.7790  139.2580  171.9514 H       1  UNL1        0.2103
@<TRIPOS>BOND
     1     1     2    1
     2     2     3   ar
     3     3     4   ar
     4     4     5   ar
     5     5     8    1
     6     8     9   am
     7     9    10    2
     8     9    12    1
     9    12    13   ar
    10    13    14   ar
    11    14    15   ar
    12    15    16    1
    13    15    17   ar
    14    17    19    1
    15    19    20    1
    16    19    21    1
    17    19    22    1
    18    17    18   ar
    19     5     6   ar
    20     6     7   ar
    21     7    23    1
    22    23    24    3
    23    24    25    1
    24    25    26   ar
    25    26    27   ar
    26    37    27    1
    27    37    38    1
    28    38    39    1
    29    39    40    1
    30    40    41    1
    31    40    42    1
    32    42    43    1
    33    27    28   ar
    34    28    29   ar
    35    29    30   ar
    36    30    31   ar
    37    31    32   ar
    38    32    33    1
    39    32    34   ar
    40     7     2   ar
    41    34    25   ar
    42    18    12   ar
    43    43    37    1
    44    34    28   ar
    45     8    11    1
    46    41    44    1
    47    33    35    1
    48    33    36    1
@<TRIPOS>MOLECULE
*****
 44 48 0 0 0
SMALL
GASTEIGER

@<TRIPOS>ATOM
      1 C         139.6174  138.4627  159.3901 C.3     1  UNL1        0.0317
      2 C         140.1488  139.0391  160.6689 C.ar    1  UNL1       -0.0141
      3 C         140.5254  138.1306  161.8016 C.ar    1  UNL1       -0.0024
      4 C         141.0568  138.7069  163.0804 C.ar    1  UNL1        0.0144
      5 C         141.2116  140.1917  163.2267 C.ar    1  UNL1        0.0511
      6 C         140.8351  141.1002  162.0940 C.ar    1  UNL1        0.0226
      7 C         140.3036  140.5238  160.8152 C.ar    1  UNL1        0.0393
      8 N         141.7431  140.7681  164.5055 N.am    1  UNL1       -0.2804
      9 C         140.8131  141.0333  165.6521 C.2     1  UNL1        0.2495
     10 O         139.3517  140.7222  165.5199 O.2     1  UNL1       -0.2698
     11 H         142.7022  140.9723  164.5923 H       1  UNL1        0.1552
     12 C         141.3445  141.6097  166.9309 C.ar    1  UNL1        0.0537
     13 C         142.8249  141.7069  167.1517 C.ar    1  UNL1        0.0054
     14 C         143.3564  142.2832  168.4305 C.ar    1  UNL1        0.0115
     15 C         142.4073  142.7624  169.4887 C.ar    1  UNL1        0.0616
     16 CL        142.9387  143.3388  170.7675 Cl      1  UNL1       -0.0823
     17 C         140.9268  142.6652  169.2680 C.ar    1  UNL1        0.0821
     18 C         140.3954  142.0888  167.9891 C.ar    1  UNL1        0.0092
     19 C         139.9777  143.1443  170.3260 C.3     1  UNL1        0.4194
     20 F         139.0285  143.6234  171.3841 F       1  UNL1       -0.1658
     21 F         140.2732  144.5655  169.9478 F       1  UNL1       -0.1658
     22 F         139.6821  141.7232  170.7044 F       1  UNL1       -0.1658
     23 C         139.9270  141.4323  159.6825 C.1     1  UNL1       -0.0585
     24 C         139.5504  142.3408  158.5499 C.1     1  UNL1       -0.0386
     25 C         139.1738  143.2492  157.4172 C.ar    1  UNL1        0.1481
     26 N         139.7903  144.5826  157.1141 N.ar    1  UNL1       -0.1595
     27 N         139.1121  145.1412  155.8984 N.ar    1  UNL1       -0.2353
     28 C         138.0764  144.1530  155.4501 C.ar    1  UNL1        0.1659
     29 N         137.1036  144.1669  154.3085 N.ar    1  UNL1       -0.2050
     30 C         136.1689  143.0114  154.1056 C.ar    1  UNL1        0.2014
     31 N         136.2070  141.8421  155.0444 N.ar    1  UNL1       -0.2093
     32 C         137.1798  141.8282  156.1860 C.ar    1  UNL1        0.1322
     33 N         137.2180  140.6589  157.1247 N.pl3   1  UNL1       -0.3424
     34 C         138.1145  142.9837  156.3889 C.ar    1  UNL1        0.0938
     35 H         136.6045  139.9005  156.9915 H       1  UNL1        0.1437
     36 H         137.8565  140.6498  157.8740 H       1  UNL1        0.1437
     37 C         139.4161  146.4570  155.2454 C.3     1  UNL1        0.1070
     38 C         138.8207  147.7208  155.7919 C.3     1  UNL1        0.0269
     39 C         139.1248  149.0365  155.1389 C.3     1  UNL1        0.0312
     40 C         140.0242  149.0886  153.9396 C.3     1  UNL1        0.1107
     41 O         140.3282  150.4043  153.2867 O.3     1  UNL1       -0.3845
     42 C         140.6195  147.8249  153.3932 C.3     1  UNL1        0.0312
     43 C         140.3155  146.5091  154.0462 C.3     1  UNL1        0.0269
     44 H         140.9199  150.2615  152.5314 H       1  UNL1        0.2103
@<TRIPOS>BOND
     1     1     2    1
     2     2     3   ar
     3     3     4   ar
     4     4     5   ar
     5     5     8    1
     6     8     9   am
     7     9    10    2
     8     9    12    1
     9    12    13   ar
    10    13    14   ar
    11    14    15   ar
    12    15    16    1
    13    15    17   ar
    14    17    19    1
    15    19    20    1
    16    19    21    1
    17    19    22    1
    18    17    18   ar
    19     5     6   ar
    20     6     7   ar
    21     7    23    1
    22    23    24    3
    23    24    25    1
    24    25    26   ar
    25    26    27   ar
    26    37    27    1
    27    37    38    1
    28    38    39    1
    29    39    40    1
    30    40    41    1
    31    40    42    1
    32    42    43    1
    33    27    28   ar
    34    28    29   ar
    35    29    30   ar
    36    30    31   ar
    37    31    32   ar
    38    32    33    1
    39    32    34   ar
    40     7     2   ar
    41    34    25   ar
    42    18    12   ar
    43    43    37    1
    44    34    28   ar
    45     8    11    1
    46    41    44    1
    47    33    35    1
    48    33    36    1
@<TRIPOS>MOLECULE
*****
 44 48 0 0 0
SMALL
GASTEIGER

@<TRIPOS>ATOM
      1 C         138.4046  142.1700  159.0741 C.3     1  UNL1        0.0317
      2 C         138.7822  142.1202  160.5249 C.ar    1  UNL1       -0.0141
      3 C         138.0332  142.9517  161.5238 C.ar    1  UNL1       -0.0024
      4 C         138.4108  142.9020  162.9746 C.ar    1  UNL1        0.0144
      5 C         139.5374  142.0208  163.4267 C.ar    1  UNL1        0.0511
      6 C         140.2864  141.1894  162.4278 C.ar    1  UNL1        0.0226
      7 C         139.9088  141.2391  160.9770 C.ar    1  UNL1        0.0393
      8 N         139.9150  141.9711  164.8775 N.am    1  UNL1       -0.2804
      9 C         141.1498  142.6758  165.3557 C.2     1  UNL1        0.2495
     10 O         142.0071  143.4301  164.3830 O.2     1  UNL1       -0.2698
     11 H         139.3524  141.4760  165.5159 H       1  UNL1        0.1552
     12 C         141.5274  142.6260  166.8065 C.ar    1  UNL1        0.0537
     13 C         142.9249  142.2550  167.2055 C.ar    1  UNL1        0.0054
     14 C         143.3025  142.2053  168.6563 C.ar    1  UNL1        0.0115
     15 C         142.2826  142.5266  169.7082 C.ar    1  UNL1        0.0616
     16 CL        142.6602  142.4769  171.1591 Cl      1  UNL1       -0.0823
     17 C         140.8851  142.8977  169.3093 C.ar    1  UNL1        0.0821
     18 C         140.5075  142.9474  167.8584 C.ar    1  UNL1        0.0092
     19 C         139.8651  143.2190  170.3611 C.3     1  UNL1        0.4194
     20 F         138.8450  143.5403  171.4129 F       1  UNL1       -0.1658
     21 F         140.2378  144.6697  170.2794 F       1  UNL1       -0.1658
     22 F         139.4923  141.7683  170.4428 F       1  UNL1       -0.1658
     23 C         140.6578  140.4077  159.9781 C.1     1  UNL1       -0.0585
     24 C         141.4068  139.5762  158.9793 C.1     1  UNL1       -0.0386
     25 C         142.1558  138.7447  157.9804 C.ar    1  UNL1        0.1481
     26 N         141.9398  137.2854  157.7092 N.ar    1  UNL1       -0.1595
     27 N         142.9028  136.8654  156.6386 N.ar    1  UNL1       -0.2353
     28 C         143.7140  138.0652  156.2482 C.ar    1  UNL1        0.1659
     29 N         144.8135  138.2501  155.2447 N.ar    1  UNL1       -0.2050
     30 C         145.4512  139.5965  155.0705 C.ar    1  UNL1        0.2014
     31 N         144.9896  140.7580  155.8999 N.ar    1  UNL1       -0.2093
     32 C         143.8901  140.5731  156.9034 C.ar    1  UNL1        0.1322
     33 N         143.4285  141.7346  157.7327 N.pl3   1  UNL1       -0.3424
     34 C         143.2524  139.2267  157.0775 C.ar    1  UNL1        0.0938
     35 H         143.8471  142.6183  157.6184 H       1  UNL1        0.1437
     36 H         142.7069  141.6132  158.3914 H       1  UNL1        0.1437
     37 C         143.0319  135.4876  156.0599 C.3     1  UNL1        0.1070
     38 C         142.4637  135.1870  154.7046 C.3     1  UNL1        0.0269
     39 C         142.5928  133.8091  154.1259 C.3     1  UNL1        0.0312
     40 C         143.2902  132.7318  154.9025 C.3     1  UNL1        0.1107
     41 O         143.4193  131.3540  154.3238 O.3     1  UNL1       -0.3845
     42 C         143.8584  133.0324  156.2578 C.3     1  UNL1        0.0312
     43 C         143.7292  134.4103  156.8364 C.3     1  UNL1        0.0269
     44 H         143.8926  130.7836  154.9495 H       1  UNL1        0.2103
@<TRIPOS>BOND
     1     1     2    1
     2     2     3   ar
     3     3     4   ar
     4     4     5   ar
     5     5     8    1
     6     8     9   am
     7     9    10    2
     8     9    12    1
     9    12    13   ar
    10    13    14   ar
    11    14    15   ar
    12    15    16    1
    13    15    17   ar
    14    17    19    1
    15    19    20    1
    16    19    21    1
    17    19    22    1
    18    17    18   ar
    19     5     6   ar
    20     6     7   ar
    21     7    23    1
    22    23    24    3
    23    24    25    1
    24    25    26   ar
    25    26    27   ar
    26    37    27    1
    27    37    38    1
    28    38    39    1
    29    39    40    1
    30    40    41    1
    31    40    42    1
    32    42    43    1
    33    27    28   ar
    34    28    29   ar
    35    29    30   ar
    36    30    31   ar
    37    31    32   ar
    38    32    33    1
    39    32    34   ar
    40     7     2   ar
    41    34    25   ar
    42    18    12   ar
    43    43    37    1
    44    34    28   ar
    45     8    11    1
    46    41    44    1
    47    33    35    1
    48    33    36    1
@<TRIPOS>MOLECULE
*****
 44 48 0 0 0
SMALL
GASTEIGER

@<TRIPOS>ATOM
      1 C         143.7602  139.8824  158.7077 C.3     1  UNL1        0.0317
      2 C         143.3740  139.9006  160.1570 C.ar    1  UNL1       -0.0141
      3 C         144.0938  139.0213  161.1361 C.ar    1  UNL1       -0.0024
      4 C         143.7077  139.0395  162.5854 C.ar    1  UNL1        0.0144
      5 C         142.6015  139.9370  163.0557 C.ar    1  UNL1        0.0511
      6 C         141.8817  140.8162  162.0765 C.ar    1  UNL1        0.0226
      7 C         142.2679  140.7980  160.6272 C.ar    1  UNL1        0.0393
      8 N         142.2153  139.9552  164.5050 N.am    1  UNL1       -0.2804
      9 C         142.9620  140.8285  165.4692 C.2     1  UNL1        0.2495
     10 O         144.0949  141.6836  164.9841 O.2     1  UNL1       -0.2698
     11 H         141.4717  139.3939  164.8233 H       1  UNL1        0.1552
     12 C         142.5758  140.8467  166.9185 C.ar    1  UNL1        0.0537
     13 C         142.6706  139.5925  167.7358 C.ar    1  UNL1        0.0054
     14 C         142.2844  139.6107  169.1851 C.ar    1  UNL1        0.0115
     15 C         141.8033  140.8832  169.8172 C.ar    1  UNL1        0.0616
     16 CL        141.4170  140.9014  171.2665 Cl      1  UNL1       -0.0823
     17 C         141.7083  142.1374  168.9999 C.ar    1  UNL1        0.0821
     18 C         142.0946  142.1191  167.5505 C.ar    1  UNL1        0.0092
     19 C         141.2272  143.4098  169.6318 C.3     1  UNL1        0.4194
     20 F         140.7460  144.6822  170.2637 F       1  UNL1       -0.1658
     21 F         142.5734  143.6050  170.2640 F       1  UNL1       -0.1658
     22 F         139.8810  143.2147  168.9996 F       1  UNL1       -0.1658
     23 C         141.5480  141.6773  159.6481 C.1     1  UNL1       -0.0585
     24 C         140.8280  142.5565  158.6689 C.1     1  UNL1       -0.0386
     25 C         140.1082  143.4357  157.6898 C.ar    1  UNL1        0.1481
     26 N         140.5373  144.8051  157.2533 N.ar    1  UNL1       -0.1595
     27 N         139.5271  145.3156  156.2690 N.ar    1  UNL1       -0.2353
     28 C         138.4736  144.2617  156.0972 C.ar    1  UNL1        0.1659
     29 N         137.2337  144.2100  155.2546 N.ar    1  UNL1       -0.2050
     30 C         136.3530  142.9963  155.2901 C.ar    1  UNL1        0.2014
     31 N         136.7121  141.8345  156.1683 N.ar    1  UNL1       -0.2093
     32 C         137.9520  141.8862  157.0108 C.ar    1  UNL1        0.1322
     33 N         138.3111  140.7244  157.8890 N.pl3   1  UNL1       -0.3424
     34 C         138.8327  143.0999  156.9753 C.ar    1  UNL1        0.0938
     35 H         137.7330  139.9278  157.9123 H       1  UNL1        0.1437
     36 H         139.1249  140.7584  158.4420 H       1  UNL1        0.1437
     37 C         139.5639  146.6464  155.5778 C.3     1  UNL1        0.1070
     38 C         138.8352  147.8178  156.1668 C.3     1  UNL1        0.0269
     39 C         138.8719  149.1486  155.4756 C.3     1  UNL1        0.0312
     40 C         139.6374  149.3080  154.1955 C.3     1  UNL1        0.1107
     41 O         139.6742  150.6388  153.5044 O.3     1  UNL1       -0.3845
     42 C         140.3661  148.1366  153.6066 C.3     1  UNL1        0.0312
     43 C         140.3293  146.8058  154.2978 C.3     1  UNL1        0.0269
     44 H         140.2081  150.5694  152.6975 H       1  UNL1        0.2103
@<TRIPOS>BOND
     1     1     2    1
     2     2     3   ar
     3     3     4   ar
     4     4     5   ar
     5     5     8    1
     6     8     9   am
     7     9    10    2
     8     9    12    1
     9    12    13   ar
    10    13    14   ar
    11    14    15   ar
    12    15    16    1
    13    15    17   ar
    14    17    19    1
    15    19    20    1
    16    19    21    1
    17    19    22    1
    18    17    18   ar
    19     5     6   ar
    20     6     7   ar
    21     7    23    1
    22    23    24    3
    23    24    25    1
    24    25    26   ar
    25    26    27   ar
    26    37    27    1
    27    37    38    1
    28    38    39    1
    29    39    40    1
    30    40    41    1
    31    40    42    1
    32    42    43    1
    33    27    28   ar
    34    28    29   ar
    35    29    30   ar
    36    30    31   ar
    37    31    32   ar
    38    32    33    1
    39    32    34   ar
    40     7     2   ar
    41    34    25   ar
    42    18    12   ar
    43    43    37    1
    44    34    28   ar
    45     8    11    1
    46    41    44    1
    47    33    35    1
    48    33    36    1
@<TRIPOS>MOLECULE
*****
 44 48 0 0 0
SMALL
GASTEIGER

@<TRIPOS>ATOM
      1 C         141.6133  139.9515  157.2519 C.3     1  UNL1        0.0317
      2 C         140.1340  140.1844  157.1672 C.ar    1  UNL1       -0.0141
      3 C         139.4456  140.1577  155.8347 C.ar    1  UNL1       -0.0024
      4 C         137.9663  140.3907  155.7500 C.ar    1  UNL1        0.0144
      5 C         137.1752  140.6504  156.9977 C.ar    1  UNL1        0.0511
      6 C         137.8636  140.6772  158.3302 C.ar    1  UNL1        0.0226
      7 C         139.3429  140.4442  158.4149 C.ar    1  UNL1        0.0393
      8 N         135.6958  140.8834  156.9130 N.am    1  UNL1       -0.2804
      9 C         134.8369  139.9621  156.0985 C.2     1  UNL1        0.2495
     10 O         135.4574  138.8078  155.3686 O.2     1  UNL1       -0.2698
     11 H         135.2886  141.6410  157.3920 H       1  UNL1        0.1552
     12 C         133.3576  140.1951  156.0138 C.ar    1  UNL1        0.0537
     13 C         132.8277  141.3947  155.2857 C.ar    1  UNL1        0.0054
     14 C         131.3483  141.6277  155.2010 C.ar    1  UNL1        0.0115
     15 C         130.3988  140.6611  155.8444 C.ar    1  UNL1        0.0616
     16 CL        128.9194  140.8941  155.7597 Cl      1  UNL1       -0.0823
     17 C         130.9286  139.4614  156.5724 C.ar    1  UNL1        0.0821
     18 C         132.4080  139.2284  156.6571 C.ar    1  UNL1        0.0092
     19 C         129.9791  138.4947  157.2158 C.3     1  UNL1        0.4194
     20 F         129.0297  137.5279  157.8591 F       1  UNL1       -0.1658
     21 F         129.9015  139.3766  158.4267 F       1  UNL1       -0.1658
     22 F         130.0567  137.6127  156.0049 F       1  UNL1       -0.1658
     23 C         140.0313  140.4709  159.7473 C.1     1  UNL1       -0.0585
     24 C         140.7198  140.4977  161.0798 C.1     1  UNL1       -0.0386
     25 C         141.4082  140.5244  162.4122 C.ar    1  UNL1        0.1481
     26 N         140.7738  140.2269  163.7385 N.ar    1  UNL1       -0.1595
     27 N         141.8254  140.3720  164.7982 N.ar    1  UNL1       -0.2353
     28 C         143.1097  140.7592  164.1269 C.ar    1  UNL1        0.1659
     29 N         144.4806  141.0381  164.6679 N.ar    1  UNL1       -0.2050
     30 C         145.5937  141.4112  163.7343 C.ar    1  UNL1        0.2014
     31 N         145.3358  141.5055  162.2596 N.ar    1  UNL1       -0.2093
     32 C         143.9649  141.2265  161.7186 C.ar    1  UNL1        0.1322
     33 N         143.7071  141.3207  160.2439 N.pl3   1  UNL1       -0.3424
     34 C         142.8518  140.8534  162.6523 C.ar    1  UNL1        0.0938
     35 H         144.4376  141.5656  159.6311 H       1  UNL1        0.1437
     36 H         142.8073  141.1376  159.8889 H       1  UNL1        0.1437
     37 C         141.6274  140.1660  166.2708 C.3     1  UNL1        0.1070
     38 C         142.7590  139.6611  167.1163 C.3     1  UNL1        0.0269
     39 C         142.5611  139.4551  168.5888 C.3     1  UNL1        0.0312
     40 C         141.2317  139.7541  169.2159 C.3     1  UNL1        0.1107
     41 O         141.0337  139.5482  170.6885 O.3     1  UNL1       -0.3845
     42 C         140.1002  140.2591  168.3705 C.3     1  UNL1        0.0312
     43 C         140.2981  140.4650  166.8979 C.3     1  UNL1        0.0269
     44 H         140.1248  139.7868  170.9291 H       1  UNL1        0.2103
@<TRIPOS>BOND
     1     1     2    1
     2     2     3   ar
     3     3     4   ar
     4     4     5   ar
     5     5     8    1
     6     8     9   am
     7     9    10    2
     8     9    12    1
     9    12    13   ar
    10    13    14   ar
    11    14    15   ar
    12    15    16    1
    13    15    17   ar
    14    17    19    1
    15    19    20    1
    16    19    21    1
    17    19    22    1
    18    17    18   ar
    19     5     6   ar
    20     6     7   ar
    21     7    23    1
    22    23    24    3
    23    24    25    1
    24    25    26   ar
    25    26    27   ar
    26    37    27    1
    27    37    38    1
    28    38    39    1
    29    39    40    1
    30    40    41    1
    31    40    42    1
    32    42    43    1
    33    27    28   ar
    34    28    29   ar
    35    29    30   ar
    36    30    31   ar
    37    31    32   ar
    38    32    33    1
    39    32    34   ar
    40     7     2   ar
    41    34    25   ar
    42    18    12   ar
    43    43    37    1
    44    34    28   ar
    45     8    11    1
    46    41    44    1
    47    33    35    1
    48    33    36    1
@<TRIPOS>MOLECULE
*****
 44 48 0 0 0
SMALL
GASTEIGER

@<TRIPOS>ATOM
      1 C         139.2189  138.3603  159.9432 C.3     1  UNL1        0.0317
      2 C         140.2457  139.1643  159.2021 C.ar    1  UNL1       -0.0141
      3 C         140.3812  139.0200  157.7152 C.ar    1  UNL1       -0.0024
      4 C         141.4080  139.8240  156.9741 C.ar    1  UNL1        0.0144
      5 C         142.2993  140.7725  157.7199 C.ar    1  UNL1        0.0511
      6 C         142.1637  140.9168  159.2068 C.ar    1  UNL1        0.0226
      7 C         141.1369  140.1128  159.9478 C.ar    1  UNL1        0.0393
      8 N         143.3261  141.5765  156.9788 N.am    1  UNL1       -0.2804
      9 C         144.4923  140.8900  156.3319 C.2     1  UNL1        0.2495
     10 O         144.6317  139.3995  156.4259 O.2     1  UNL1       -0.2698
     11 H         143.2345  142.5548  156.9171 H       1  UNL1        0.1552
     12 C         145.5191  141.6941  155.5908 C.ar    1  UNL1        0.0537
     13 C         145.1021  142.9021  154.8055 C.ar    1  UNL1        0.0054
     14 C         146.1288  143.7061  154.0644 C.ar    1  UNL1        0.0115
     15 C         147.5728  143.3022  154.1087 C.ar    1  UNL1        0.0616
     16 CL        148.5995  144.1062  153.3676 Cl      1  UNL1       -0.0823
     17 C         147.9899  142.0942  154.8940 C.ar    1  UNL1        0.0821
     18 C         146.9630  141.2901  155.6350 C.ar    1  UNL1        0.0092
     19 C         149.4337  141.6902  154.9383 C.3     1  UNL1        0.4194
     20 F         150.8776  141.2861  154.9825 F       1  UNL1       -0.1658
     21 F         149.5164  142.1420  156.3662 F       1  UNL1       -0.1658
     22 F         149.3511  141.2383  153.5103 F       1  UNL1       -0.1658
     23 C         141.0013  140.2571  161.4347 C.1     1  UNL1       -0.0585
     24 C         140.8657  140.4014  162.9216 C.1     1  UNL1       -0.0386
     25 C         140.7301  140.5457  164.4085 C.ar    1  UNL1        0.1481
     26 N         141.5838  141.4060  165.2923 N.ar    1  UNL1       -0.1595
     27 N         141.0983  141.2471  166.7026 N.ar    1  UNL1       -0.2353
     28 C         139.9445  140.2886  166.6904 C.ar    1  UNL1        0.1659
     29 N         139.0718  139.7545  167.7872 N.ar    1  UNL1       -0.2050
     30 C         137.9715  138.7870  167.4662 C.ar    1  UNL1        0.2014
     31 N         137.7439  138.3535  166.0483 N.ar    1  UNL1       -0.2093
     32 C         138.6166  138.8876  164.9515 C.ar    1  UNL1        0.1322
     33 N         138.3891  138.4541  163.5337 N.pl3   1  UNL1       -0.3424
     34 C         139.7170  139.8551  165.2726 C.ar    1  UNL1        0.0938
     35 H         137.6669  137.8191  163.3229 H       1  UNL1        0.1437
     36 H         138.9619  138.8047  162.8138 H       1  UNL1        0.1437
     37 C         141.6667  141.9272  167.9127 C.3     1  UNL1        0.1070
     38 C         140.8009  142.8279  168.7429 C.3     1  UNL1        0.0269
     39 C         141.3693  143.5081  169.9530 C.3     1  UNL1        0.0312
     40 C         142.8035  143.2876  170.3329 C.3     1  UNL1        0.1107
     41 O         143.3720  143.9677  171.5430 O.3     1  UNL1       -0.3845
     42 C         143.6693  142.3869  169.5027 C.3     1  UNL1        0.0312
     43 C         143.1009  141.7068  168.2926 C.3     1  UNL1        0.0269
     44 H         144.3041  143.7197  171.6453 H       1  UNL1        0.2103
@<TRIPOS>BOND
     1     1     2    1
     2     2     3   ar
     3     3     4   ar
     4     4     5   ar
     5     5     8    1
     6     8     9   am
     7     9    10    2
     8     9    12    1
     9    12    13   ar
    10    13    14   ar
    11    14    15   ar
    12    15    16    1
    13    15    17   ar
    14    17    19    1
    15    19    20    1
    16    19    21    1
    17    19    22    1
    18    17    18   ar
    19     5     6   ar
    20     6     7   ar
    21     7    23    1
    22    23    24    3
    23    24    25    1
    24    25    26   ar
    25    26    27   ar
    26    37    27    1
    27    37    38    1
    28    38    39    1
    29    39    40    1
    30    40    41    1
    31    40    42    1
    32    42    43    1
    33    27    28   ar
    34    28    29   ar
    35    29    30   ar
    36    30    31   ar
    37    31    32   ar
    38    32    33    1
    39    32    34   ar
    40     7     2   ar
    41    34    25   ar
    42    18    12   ar
    43    43    37    1
    44    34    28   ar
    45     8    11    1
    46    41    44    1
    47    33    35    1
    48    33    36    1
