@<TRIPOS>MOLECULE
*****
 29 32 0 0 0
SMALL
GASTEIGER

@<TRIPOS>ATOM
      1 C         140.9154  145.3391  158.5861 C.ar    1  UNL1        0.1680
      2 N         142.1619  144.8608  159.2697 N.ar    1  UNL1       -0.2213
      3 C         141.7823  144.3684  160.6348 C.ar    1  UNL1        0.0989
      4 C         140.3010  144.5423  160.7949 C.ar    1  UNL1        0.0760
      5 N         139.7652  145.1422  159.5288 N.ar    1  UNL1       -0.3324
      6 H         138.8239  145.3673  159.3482 H       1  UNL1        0.1679
      7 C         142.7194  143.8016  161.6598 C.ar    1  UNL1        0.0193
      8 C         143.3012  142.4324  161.4683 C.ar    1  UNL1        0.0038
      9 C         144.2383  141.8657  162.4933 C.ar    1  UNL1        0.0297
     10 C         144.5935  142.6681  163.7098 C.ar    1  UNL1        0.1401
     11 F         145.5306  142.1013  164.7349 F       1  UNL1       -0.2042
     12 C         144.0116  144.0373  163.9014 C.ar    1  UNL1        0.0297
     13 C         143.0746  144.6040  162.8764 C.ar    1  UNL1        0.0038
     14 C         139.4967  144.1800  162.0081 C.ar    1  UNL1        0.0214
     15 C         139.4310  145.1225  163.1732 C.ar    1  UNL1        0.0222
     16 C         138.6267  144.7602  164.3864 C.ar    1  UNL1        0.1004
     17 N         137.8881  143.4555  164.4346 N.ar    1  UNL1       -0.2291
     18 C         137.9539  142.5130  163.2694 C.ar    1  UNL1        0.1322
     19 C         138.7582  142.8754  162.0563 C.ar    1  UNL1        0.0359
     20 N         137.2155  141.2083  163.3175 N.pl3   1  UNL1       -0.2979
     21 H         136.2736  141.1650  163.0342 H       1  UNL1        0.1536
     22 C         137.9120  139.9695  163.7972 C.ar    1  UNL1        0.0494
     23 C         138.1445  139.7603  165.2643 C.ar    1  UNL1        0.0146
     24 C         138.8411  138.5215  165.7441 C.ar    1  UNL1        0.0013
     25 C         139.3051  137.4918  164.7568 C.ar    1  UNL1        0.0001
     26 C         139.0725  137.7011  163.2898 C.ar    1  UNL1        0.0013
     27 C         138.3760  138.9399  162.8100 C.ar    1  UNL1        0.0146
     28 C         139.6048  146.6584  156.7718 C.3     1  UNL1        0.0772
     29 S         140.8333  145.9133  157.2029 S.3     1  UNL1       -0.0766
@<TRIPOS>BOND
     1    28    29    1
     2    29     1    1
     3     1     2   ar
     4     2     3   ar
     5     3     7    1
     6     7     8   ar
     7     8     9   ar
     8     9    10   ar
     9    10    11    1
    10    10    12   ar
    11    12    13   ar
    12     3     4   ar
    13     4    14    1
    14    14    15   ar
    15    15    16   ar
    16    16    17   ar
    17    17    18   ar
    18    18    20    1
    19    20    22    1
    20    22    23   ar
    21    23    24   ar
    22    24    25   ar
    23    25    26   ar
    24    26    27   ar
    25    18    19   ar
    26     4     5   ar
    27     5     1   ar
    28    13     7   ar
    29    19    14   ar
    30    27    22   ar
    31    20    21    1
    32     5     6    1
@<TRIPOS>MOLECULE
*****
 29 32 0 0 0
SMALL
GASTEIGER

@<TRIPOS>ATOM
      1 C         140.5017  140.1022  169.1920 C.ar    1  UNL1        0.1680
      2 N         141.7779  140.4499  168.4846 N.ar    1  UNL1       -0.2213
      3 C         141.5645  140.2422  167.0145 C.ar    1  UNL1        0.0989
      4 C         140.1564  139.7662  166.8132 C.ar    1  UNL1        0.0760
      5 N         139.4995  139.6796  168.1589 N.ar    1  UNL1       -0.3324
      6 H         138.5732  139.3954  168.3335 H       1  UNL1        0.1679
      7 C         142.5808  140.4705  165.9351 C.ar    1  UNL1        0.0193
      8 C         142.8797  141.8645  165.4690 C.ar    1  UNL1        0.0038
      9 C         143.8960  142.0928  164.3897 C.ar    1  UNL1        0.0297
     10 C         144.6134  140.9269  163.7764 C.ar    1  UNL1        0.1401
     11 F         145.6298  141.1552  162.6970 F       1  UNL1       -0.2042
     12 C         144.3146  139.5329  164.2424 C.ar    1  UNL1        0.0297
     13 C         143.2983  139.3047  165.3218 C.ar    1  UNL1        0.0038
     14 C         139.5172  139.4348  165.4972 C.ar    1  UNL1        0.0214
     15 C         139.5715  138.0318  164.9693 C.ar    1  UNL1        0.0222
     16 C         138.9324  137.7004  163.6534 C.ar    1  UNL1        0.1004
     17 N         138.2390  138.7720  162.8653 N.ar    1  UNL1       -0.2291
     18 C         138.1848  140.1749  163.3933 C.ar    1  UNL1        0.1322
     19 C         138.8239  140.5063  164.7092 C.ar    1  UNL1        0.0359
     20 N         137.4914  141.2466  162.6053 N.pl3   1  UNL1       -0.2979
     21 H         136.5699  141.1063  162.2883 H       1  UNL1        0.1536
     22 C         138.2020  142.5318  162.3002 C.ar    1  UNL1        0.0494
     23 C         139.1324  142.6141  161.1265 C.ar    1  UNL1        0.0146
     24 C         139.8430  143.8994  160.8214 C.ar    1  UNL1        0.0013
     25 C         139.6233  145.1024  161.6900 C.ar    1  UNL1        0.0001
     26 C         138.6929  145.0201  162.8637 C.ar    1  UNL1        0.0013
     27 C         137.9822  143.7348  163.1688 C.ar    1  UNL1        0.0146
     28 C         140.9516  141.2183  171.4946 C.3     1  UNL1        0.0772
     29 S         140.2686  140.1659  170.6724 S.3     1  UNL1       -0.0766
@<TRIPOS>BOND
     1    28    29    1
     2    29     1    1
     3     1     2   ar
     4     2     3   ar
     5     3     7    1
     6     7     8   ar
     7     8     9   ar
     8     9    10   ar
     9    10    11    1
    10    10    12   ar
    11    12    13   ar
    12     3     4   ar
    13     4    14    1
    14    14    15   ar
    15    15    16   ar
    16    16    17   ar
    17    17    18   ar
    18    18    20    1
    19    20    22    1
    20    22    23   ar
    21    23    24   ar
    22    24    25   ar
    23    25    26   ar
    24    26    27   ar
    25    18    19   ar
    26     4     5   ar
    27     5     1   ar
    28    13     7   ar
    29    19    14   ar
    30    27    22   ar
    31    20    21    1
    32     5     6    1
@<TRIPOS>MOLECULE
*****
 29 32 0 0 0
SMALL
GASTEIGER

@<TRIPOS>ATOM
      1 C         141.9321  142.1697  168.8858 C.ar    1  UNL1        0.1680
      2 N         142.9892  142.1347  167.8222 N.ar    1  UNL1       -0.2213
      3 C         142.3345  142.4404  166.5077 C.ar    1  UNL1        0.0989
      4 C         140.8727  142.6644  166.7589 C.ar    1  UNL1        0.0760
      5 N         140.6240  142.4971  168.2286 N.ar    1  UNL1       -0.3324
      6 H         139.7548  142.5865  168.6823 H       1  UNL1        0.1679
      7 C         143.0210  142.5099  165.1758 C.ar    1  UNL1        0.0193
      8 C         143.4558  141.2491  164.4894 C.ar    1  UNL1        0.0038
      9 C         144.1423  141.3187  163.1575 C.ar    1  UNL1        0.0297
     10 C         144.3941  142.6491  162.5121 C.ar    1  UNL1        0.1401
     11 F         145.0807  142.7186  161.1802 F       1  UNL1       -0.2042
     12 C         143.9594  143.9099  163.1986 C.ar    1  UNL1        0.0297
     13 C         143.2729  143.8404  164.5304 C.ar    1  UNL1        0.0038
     14 C         139.8408  142.9972  165.7223 C.ar    1  UNL1        0.0214
     15 C         139.6171  144.4243  165.3180 C.ar    1  UNL1        0.0222
     16 C         138.5852  144.7571  164.2815 C.ar    1  UNL1        0.1004
     17 N         137.7770  143.6630  163.6492 N.ar    1  UNL1       -0.2291
     18 C         138.0008  142.2359  164.0536 C.ar    1  UNL1        0.1322
     19 C         139.0327  141.9031  165.0901 C.ar    1  UNL1        0.0359
     20 N         137.1926  141.1417  163.4214 N.pl3   1  UNL1       -0.2979
     21 H         136.2179  141.1093  163.5556 H       1  UNL1        0.1536
     22 C         137.8697  140.0969  162.5848 C.ar    1  UNL1        0.0494
     23 C         138.4750  138.8897  163.2377 C.ar    1  UNL1        0.0146
     24 C         139.1520  137.8449  162.4011 C.ar    1  UNL1        0.0013
     25 C         139.2238  138.0072  160.9115 C.ar    1  UNL1        0.0001
     26 C         138.6184  139.2144  160.2587 C.ar    1  UNL1        0.0013
     27 C         137.9414  140.2593  161.0953 C.ar    1  UNL1        0.0146
     28 C         141.4922  140.7454  171.0137 C.3     1  UNL1        0.0772
     29 S         142.1455  141.9210  170.3495 S.3     1  UNL1       -0.0766
@<TRIPOS>BOND
     1    28    29    1
     2    29     1    1
     3     1     2   ar
     4     2     3   ar
     5     3     7    1
     6     7     8   ar
     7     8     9   ar
     8     9    10   ar
     9    10    11    1
    10    10    12   ar
    11    12    13   ar
    12     3     4   ar
    13     4    14    1
    14    14    15   ar
    15    15    16   ar
    16    16    17   ar
    17    17    18   ar
    18    18    20    1
    19    20    22    1
    20    22    23   ar
    21    23    24   ar
    22    24    25   ar
    23    25    26   ar
    24    26    27   ar
    25    18    19   ar
    26     4     5   ar
    27     5     1   ar
    28    13     7   ar
    29    19    14   ar
    30    27    22   ar
    31    20    21    1
    32     5     6    1
@<TRIPOS>MOLECULE
*****
 29 32 0 0 0
SMALL
GASTEIGER

@<TRIPOS>ATOM
      1 C         140.5715  140.0976  169.1098 C.ar    1  UNL1        0.1680
      2 N         139.5804  139.6662  168.0698 N.ar    1  UNL1       -0.2213
      3 C         140.2708  139.6786  166.7382 C.ar    1  UNL1        0.0989
      4 C         141.6886  140.1176  166.9552 C.ar    1  UNL1        0.0760
      5 N         141.8745  140.3766  168.4210 N.ar    1  UNL1       -0.3324
      6 H         142.7057  140.6769  168.8547 H       1  UNL1        0.1679
      7 C         139.6521  139.3157  165.4208 C.ar    1  UNL1        0.0193
      8 C         138.7534  140.2911  164.7202 C.ar    1  UNL1        0.0038
      9 C         138.1346  139.9281  163.4029 C.ar    1  UNL1        0.0297
     10 C         138.4146  138.5897  162.7862 C.ar    1  UNL1        0.1401
     11 F         137.7958  138.2268  161.4688 F       1  UNL1       -0.2042
     12 C         139.3133  137.6143  163.4867 C.ar    1  UNL1        0.0297
     13 C         139.9320  137.9773  164.8041 C.ar    1  UNL1        0.0038
     14 C         142.7366  140.2708  165.8931 C.ar    1  UNL1        0.0214
     15 C         143.5516  139.0856  165.4672 C.ar    1  UNL1        0.0222
     16 C         144.5996  139.2388  164.4050 C.ar    1  UNL1        0.1004
     17 N         144.8327  140.5771  163.7687 N.ar    1  UNL1       -0.2291
     18 C         144.0177  141.7621  164.1946 C.ar    1  UNL1        0.1322
     19 C         142.9697  141.6089  165.2568 C.ar    1  UNL1        0.0359
     20 N         144.2507  143.1004  163.5583 N.pl3   1  UNL1       -0.2979
     21 H         145.1416  143.5173  163.6010 H       1  UNL1        0.1536
     22 C         143.1265  143.8034  162.8571 C.ar    1  UNL1        0.0494
     23 C         142.8737  143.5469  161.4010 C.ar    1  UNL1        0.0146
     24 C         141.7494  144.2500  160.6998 C.ar    1  UNL1        0.0013
     25 C         140.8779  145.2095  161.4546 C.ar    1  UNL1        0.0001
     26 C         141.1307  145.4660  162.9107 C.ar    1  UNL1        0.0013
     27 C         142.2550  144.7629  163.6121 C.ar    1  UNL1        0.0146
     28 C         141.0576  141.2409  171.3916 C.3     1  UNL1        0.0772
     29 S         140.3062  140.2272  170.5805 S.3     1  UNL1       -0.0766
@<TRIPOS>BOND
     1    28    29    1
     2    29     1    1
     3     1     2   ar
     4     2     3   ar
     5     3     7    1
     6     7     8   ar
     7     8     9   ar
     8     9    10   ar
     9    10    11    1
    10    10    12   ar
    11    12    13   ar
    12     3     4   ar
    13     4    14    1
    14    14    15   ar
    15    15    16   ar
    16    16    17   ar
    17    17    18   ar
    18    18    20    1
    19    20    22    1
    20    22    23   ar
    21    23    24   ar
    22    24    25   ar
    23    25    26   ar
    24    26    27   ar
    25    18    19   ar
    26     4     5   ar
    27     5     1   ar
    28    13     7   ar
    29    19    14   ar
    30    27    22   ar
    31    20    21    1
    32     5     6    1
@<TRIPOS>MOLECULE
*****
 29 32 0 0 0
SMALL
GASTEIGER

@<TRIPOS>ATOM
      1 C         142.0683  142.4069  168.8360 C.ar    1  UNL1        0.1680
      2 N         140.8779  142.7831  168.0045 N.ar    1  UNL1       -0.2213
      3 C         141.1498  142.3651  166.5898 C.ar    1  UNL1        0.0989
      4 C         142.5083  141.7305  166.5469 C.ar    1  UNL1        0.0760
      5 N         143.0760  141.7563  167.9351 N.ar    1  UNL1       -0.3324
      6 H         143.9555  141.4075  168.2072 H       1  UNL1        0.1679
      7 C         140.2255  142.5493  165.4228 C.ar    1  UNL1        0.0193
      8 C         139.2904  141.4459  165.0252 C.ar    1  UNL1        0.0038
      9 C         138.3661  141.6302  163.8583 C.ar    1  UNL1        0.0297
     10 C         138.3769  142.9179  163.0890 C.ar    1  UNL1        0.1401
     11 F         137.4526  143.1021  161.9221 F       1  UNL1       -0.2042
     12 C         139.3120  144.0213  163.4867 C.ar    1  UNL1        0.0297
     13 C         140.2363  143.8370  164.6536 C.ar    1  UNL1        0.0038
     14 C         143.1810  141.1687  165.3296 C.ar    1  UNL1        0.0214
     15 C         144.4147  141.8251  164.7844 C.ar    1  UNL1        0.0222
     16 C         145.0874  141.2633  163.5671 C.ar    1  UNL1        0.1004
     17 N         144.5265  140.0452  162.8950 N.ar    1  UNL1       -0.2291
     18 C         143.2929  139.3889  163.4402 C.ar    1  UNL1        0.1322
     19 C         142.6202  139.9507  164.6575 C.ar    1  UNL1        0.0359
     20 N         142.7319  138.1708  162.7682 N.pl3   1  UNL1       -0.2979
     21 H         143.3216  137.4131  162.5506 H       1  UNL1        0.1536
     22 C         141.2725  138.1073  162.4276 C.ar    1  UNL1        0.0494
     23 C         140.2779  137.6808  163.4664 C.ar    1  UNL1        0.0146
     24 C         138.8184  137.6172  163.1259 C.ar    1  UNL1        0.0013
     25 C         138.3535  137.9800  161.7466 C.ar    1  UNL1        0.0001
     26 C         139.3482  138.4064  160.7079 C.ar    1  UNL1        0.0013
     27 C         140.8077  138.4701  161.0484 C.ar    1  UNL1        0.0146
     28 C         141.4183  141.8348  171.2855 C.3     1  UNL1        0.0772
     29 S         142.2238  142.6402  170.3095 S.3     1  UNL1       -0.0766
@<TRIPOS>BOND
     1    28    29    1
     2    29     1    1
     3     1     2   ar
     4     2     3   ar
     5     3     7    1
     6     7     8   ar
     7     8     9   ar
     8     9    10   ar
     9    10    11    1
    10    10    12   ar
    11    12    13   ar
    12     3     4   ar
    13     4    14    1
    14    14    15   ar
    15    15    16   ar
    16    16    17   ar
    17    17    18   ar
    18    18    20    1
    19    20    22    1
    20    22    23   ar
    21    23    24   ar
    22    24    25   ar
    23    25    26   ar
    24    26    27   ar
    25    18    19   ar
    26     4     5   ar
    27     5     1   ar
    28    13     7   ar
    29    19    14   ar
    30    27    22   ar
    31    20    21    1
    32     5     6    1
@<TRIPOS>MOLECULE
*****
 29 32 0 0 0
SMALL
GASTEIGER

@<TRIPOS>ATOM
      1 C         142.2665  141.9661  168.6488 C.ar    1  UNL1        0.1680
      2 N         142.7026  140.9192  167.6671 N.ar    1  UNL1       -0.2213
      3 C         141.8353  141.0362  166.4488 C.ar    1  UNL1        0.0989
      4 C         140.8632  142.1554  166.6776 C.ar    1  UNL1        0.0760
      5 N         141.1297  142.7302  168.0372 N.ar    1  UNL1       -0.3324
      6 H         140.6438  143.4776  168.4549 H       1  UNL1        0.1679
      7 C         141.9245  140.1835  165.2179 C.ar    1  UNL1        0.0193
      8 C         141.5468  138.7333  165.2811 C.ar    1  UNL1        0.0038
      9 C         141.6360  137.8807  164.0502 C.ar    1  UNL1        0.0297
     10 C         142.1029  138.4784  162.7561 C.ar    1  UNL1        0.1401
     11 F         142.1921  137.6258  161.5251 F       1  UNL1       -0.2042
     12 C         142.4806  139.9287  162.6929 C.ar    1  UNL1        0.0297
     13 C         142.3914  140.7812  163.9238 C.ar    1  UNL1        0.0038
     14 C         139.8096  142.6186  165.7157 C.ar    1  UNL1        0.0214
     15 C         139.5743  144.0858  165.5104 C.ar    1  UNL1        0.0222
     16 C         138.5207  144.5490  164.5485 C.ar    1  UNL1        0.1004
     17 N         137.7024  143.5451  163.7917 N.ar    1  UNL1       -0.2291
     18 C         137.9377  142.0780  163.9970 C.ar    1  UNL1        0.1322
     19 C         138.9913  141.6148  164.9590 C.ar    1  UNL1        0.0359
     20 N         137.1194  141.0740  163.2404 N.pl3   1  UNL1       -0.2979
     21 H         136.1509  141.0051  163.4033 H       1  UNL1        0.1536
     22 C         137.7767  140.1750  162.2355 C.ar    1  UNL1        0.0494
     23 C         137.9827  140.6485  160.8271 C.ar    1  UNL1        0.0146
     24 C         138.6399  139.7496  159.8223 C.ar    1  UNL1        0.0013
     25 C         139.0913  138.3771  160.2257 C.ar    1  UNL1        0.0001
     26 C         138.8853  137.9037  161.6340 C.ar    1  UNL1        0.0013
     27 C         138.2280  138.8026  162.6390 C.ar    1  UNL1        0.0146
     28 C         144.3163  142.5532  170.1333 C.3     1  UNL1        0.0772
     29 S         142.8626  142.2068  170.0041 S.3     1  UNL1       -0.0766
@<TRIPOS>BOND
     1    28    29    1
     2    29     1    1
     3     1     2   ar
     4     2     3   ar
     5     3     7    1
     6     7     8   ar
     7     8     9   ar
     8     9    10   ar
     9    10    11    1
    10    10    12   ar
    11    12    13   ar
    12     3     4   ar
    13     4    14    1
    14    14    15   ar
    15    15    16   ar
    16    16    17   ar
    17    17    18   ar
    18    18    20    1
    19    20    22    1
    20    22    23   ar
    21    23    24   ar
    22    24    25   ar
    23    25    26   ar
    24    26    27   ar
    25    18    19   ar
    26     4     5   ar
    27     5     1   ar
    28    13     7   ar
    29    19    14   ar
    30    27    22   ar
    31    20    21    1
    32     5     6    1
@<TRIPOS>MOLECULE
*****
 29 32 0 0 0
SMALL
GASTEIGER

@<TRIPOS>ATOM
      1 C         138.6531  141.7267  158.5919 C.ar    1  UNL1        0.1680
      2 N         138.1303  142.6057  159.6892 N.ar    1  UNL1       -0.2213
      3 C         139.0654  142.4953  160.8569 C.ar    1  UNL1        0.0989
      4 C         140.1661  141.5480  160.4813 C.ar    1  UNL1        0.0760
      5 N         139.9113  141.0729  159.0815 N.ar    1  UNL1       -0.3324
      6 H         140.4715  140.4427  158.5734 H       1  UNL1        0.1679
      7 C         138.9245  143.2073  162.1696 C.ar    1  UNL1        0.0193
      8 C         137.8877  142.7610  163.1574 C.ar    1  UNL1        0.0038
      9 C         137.7468  143.4729  164.4701 C.ar    1  UNL1        0.0297
     10 C         138.6428  144.6312  164.7950 C.ar    1  UNL1        0.1401
     11 F         138.5019  145.3432  166.1078 F       1  UNL1       -0.2042
     12 C         139.6796  145.0775  163.8073 C.ar    1  UNL1        0.0297
     13 C         139.8205  144.3656  162.4946 C.ar    1  UNL1        0.0038
     14 C         141.3191  141.1462  161.3525 C.ar    1  UNL1        0.0214
     15 C         142.6841  141.7143  161.0991 C.ar    1  UNL1        0.0222
     16 C         143.8372  141.3126  161.9704 C.ar    1  UNL1        0.1004
     17 N         143.6254  140.3427  163.0950 N.ar    1  UNL1       -0.2291
     18 C         142.2604  139.7747  163.3483 C.ar    1  UNL1        0.1322
     19 C         141.1073  140.1765  162.4771 C.ar    1  UNL1        0.0359
     20 N         142.0485  138.8049  164.4728 N.pl3   1  UNL1       -0.2979
     21 H         142.7785  138.2054  164.7500 H       1  UNL1        0.1536
     22 C         140.7242  138.7486  165.1751 C.ar    1  UNL1        0.0494
     23 C         140.3744  139.7860  166.2005 C.ar    1  UNL1        0.0146
     24 C         139.0502  139.7297  166.9028 C.ar    1  UNL1        0.0013
     25 C         138.0757  138.6360  166.5797 C.ar    1  UNL1        0.0001
     26 C         138.4256  137.5986  165.5544 C.ar    1  UNL1        0.0013
     27 C         139.7499  137.6548  164.8520 C.ar    1  UNL1        0.0146
     28 C         137.1208  142.5890  156.6792 C.3     1  UNL1        0.0772
     29 S         138.0275  141.5350  157.2422 S.3     1  UNL1       -0.0766
@<TRIPOS>BOND
     1    28    29    1
     2    29     1    1
     3     1     2   ar
     4     2     3   ar
     5     3     7    1
     6     7     8   ar
     7     8     9   ar
     8     9    10   ar
     9    10    11    1
    10    10    12   ar
    11    12    13   ar
    12     3     4   ar
    13     4    14    1
    14    14    15   ar
    15    15    16   ar
    16    16    17   ar
    17    17    18   ar
    18    18    20    1
    19    20    22    1
    20    22    23   ar
    21    23    24   ar
    22    24    25   ar
    23    25    26   ar
    24    26    27   ar
    25    18    19   ar
    26     4     5   ar
    27     5     1   ar
    28    13     7   ar
    29    19    14   ar
    30    27    22   ar
    31    20    21    1
    32     5     6    1
@<TRIPOS>MOLECULE
*****
 29 32 0 0 0
SMALL
GASTEIGER

@<TRIPOS>ATOM
      1 C         138.3960  141.9134  159.0233 C.ar    1  UNL1        0.1680
      2 N         138.8649  140.5820  159.5307 N.ar    1  UNL1       -0.2213
      3 C         139.1806  140.7270  160.9899 C.ar    1  UNL1        0.0989
      4 C         138.9067  142.1481  161.3844 C.ar    1  UNL1        0.0760
      5 N         138.4219  142.8813  160.1690 N.ar    1  UNL1       -0.3324
      6 H         138.1656  143.8311  160.1301 H       1  UNL1        0.1679
      7 C         139.6820  139.6415  161.8957 C.ar    1  UNL1        0.0193
      8 C         141.1067  139.1823  161.7987 C.ar    1  UNL1        0.0038
      9 C         141.6080  138.0969  162.7044 C.ar    1  UNL1        0.0297
     10 C         140.6847  137.4706  163.7070 C.ar    1  UNL1        0.1401
     11 F         141.1862  136.3850  164.6128 F       1  UNL1       -0.2042
     12 C         139.2601  137.9297  163.8040 C.ar    1  UNL1        0.0297
     13 C         138.7587  139.0152  162.8983 C.ar    1  UNL1        0.0038
     14 C         139.0862  142.7332  162.7539 C.ar    1  UNL1        0.0214
     15 C         137.9944  143.5609  163.3648 C.ar    1  UNL1        0.0222
     16 C         138.1739  144.1460  164.7342 C.ar    1  UNL1        0.1004
     17 N         139.4451  143.9034  165.4928 N.ar    1  UNL1       -0.2291
     18 C         140.5367  143.0757  164.8819 C.ar    1  UNL1        0.1322
     19 C         140.3572  142.4907  163.5125 C.ar    1  UNL1        0.0359
     20 N         141.8078  142.8332  165.6405 N.pl3   1  UNL1       -0.2979
     21 H         142.2263  143.5663  166.1471 H       1  UNL1        0.1536
     22 C         142.4413  141.4736  165.6272 C.ar    1  UNL1        0.0494
     23 C         141.9032  140.3868  166.5102 C.ar    1  UNL1        0.0146
     24 C         142.5367  139.0272  166.4969 C.ar    1  UNL1        0.0013
     25 C         143.7083  138.7543  165.6008 C.ar    1  UNL1        0.0001
     26 C         144.2463  139.8411  164.7179 C.ar    1  UNL1        0.0013
     27 C         143.6129  141.2007  164.7311 C.ar    1  UNL1        0.0146
     28 C         138.9720  142.1358  156.4996 C.3     1  UNL1        0.0772
     29 S         137.9752  142.2227  157.6172 S.3     1  UNL1       -0.0766
@<TRIPOS>BOND
     1    28    29    1
     2    29     1    1
     3     1     2   ar
     4     2     3   ar
     5     3     7    1
     6     7     8   ar
     7     8     9   ar
     8     9    10   ar
     9    10    11    1
    10    10    12   ar
    11    12    13   ar
    12     3     4   ar
    13     4    14    1
    14    14    15   ar
    15    15    16   ar
    16    16    17   ar
    17    17    18   ar
    18    18    20    1
    19    20    22    1
    20    22    23   ar
    21    23    24   ar
    22    24    25   ar
    23    25    26   ar
    24    26    27   ar
    25    18    19   ar
    26     4     5   ar
    27     5     1   ar
    28    13     7   ar
    29    19    14   ar
    30    27    22   ar
    31    20    21    1
    32     5     6    1
@<TRIPOS>MOLECULE
*****
 29 32 0 0 0
SMALL
GASTEIGER

@<TRIPOS>ATOM
      1 C         142.7980  142.2434  168.5129 C.ar    1  UNL1        0.1680
      2 N         143.4960  142.6560  167.2509 N.ar    1  UNL1       -0.2213
      3 C         142.5756  142.3771  166.0997 C.ar    1  UNL1        0.0989
      4 C         141.3089  141.7921  166.6502 C.ar    1  UNL1        0.0760
      5 N         141.4463  141.7095  168.1416 N.ar    1  UNL1       -0.3324
      6 H         140.7683  141.3652  168.7670 H       1  UNL1        0.1679
      7 C         142.8704  142.6375  164.6521 C.ar    1  UNL1        0.0193
      8 C         142.8805  144.0436  164.1299 C.ar    1  UNL1        0.0038
      9 C         143.1752  144.3039  162.6824 C.ar    1  UNL1        0.0297
     10 C         143.4599  143.1582  161.7571 C.ar    1  UNL1        0.1401
     11 F         143.7546  143.4186  160.3095 F       1  UNL1       -0.2042
     12 C         143.4497  141.7521  162.2793 C.ar    1  UNL1        0.0297
     13 C         143.1550  141.4917  163.7268 C.ar    1  UNL1        0.0038
     14 C         140.1144  141.3648  165.8498 C.ar    1  UNL1        0.0214
     15 C         139.5062  140.0120  166.0742 C.ar    1  UNL1        0.0222
     16 C         138.3118  139.5847  165.2738 C.ar    1  UNL1        0.1004
     17 N         137.7253  140.5100  164.2492 N.ar    1  UNL1       -0.2291
     18 C         138.3335  141.8628  164.0249 C.ar    1  UNL1        0.1322
     19 C         139.5280  142.2901  164.8252 C.ar    1  UNL1        0.0359
     20 N         137.7471  142.7881  163.0002 N.pl3   1  UNL1       -0.2979
     21 H         136.7746  142.8009  162.8477 H       1  UNL1        0.1536
     22 C         138.6425  143.6941  162.2081 C.ar    1  UNL1        0.0494
     23 C         139.2772  143.2010  160.9415 C.ar    1  UNL1        0.0146
     24 C         140.1726  144.1069  160.1493 C.ar    1  UNL1        0.0013
     25 C         140.4334  145.5059  160.6237 C.ar    1  UNL1        0.0001
     26 C         139.7987  145.9989  161.8902 C.ar    1  UNL1        0.0013
     27 C         138.9032  145.0930  162.6825 C.ar    1  UNL1        0.0146
     28 C         144.7377  142.8841  170.1182 C.3     1  UNL1        0.0772
     29 S         143.3541  142.3466  169.9021 S.3     1  UNL1       -0.0766
@<TRIPOS>BOND
     1    28    29    1
     2    29     1    1
     3     1     2   ar
     4     2     3   ar
     5     3     7    1
     6     7     8   ar
     7     8     9   ar
     8     9    10   ar
     9    10    11    1
    10    10    12   ar
    11    12    13   ar
    12     3     4   ar
    13     4    14    1
    14    14    15   ar
    15    15    16   ar
    16    16    17   ar
    17    17    18   ar
    18    18    20    1
    19    20    22    1
    20    22    23   ar
    21    23    24   ar
    22    24    25   ar
    23    25    26   ar
    24    26    27   ar
    25    18    19   ar
    26     4     5   ar
    27     5     1   ar
    28    13     7   ar
    29    19    14   ar
    30    27    22   ar
    31    20    21    1
    32     5     6    1
