@<TRIPOS>MOLECULE
*****
 32 36 0 0 0
SMALL
GASTEIGER

@<TRIPOS>ATOM
      1 N         142.5237  137.4270  161.6825 N.pl3   1  UNL1       -0.2802
      2 H         143.0275  136.5880  161.7891 H       1  UNL1        0.1552
      3 C         141.4649  137.7977  162.6784 C.ar    1  UNL1        0.2208
      4 N         141.2016  136.9099  163.8585 N.ar    1  UNL1       -0.2111
      5 C         140.1429  137.2806  164.8543 C.ar    1  UNL1        0.1147
      6 C         139.3474  138.5389  164.6701 C.ar    1  UNL1        0.0960
      7 CL        138.2887  138.9095  165.6659 Cl      1  UNL1       -0.0790
      8 C         139.6108  139.4266  163.4899 C.ar    1  UNL1        0.1138
      9 N         140.6695  139.0560  162.4941 N.ar    1  UNL1       -0.2111
     10 C         138.8153  140.6849  163.3056 C.ar    1  UNL1        0.1031
     11 C         137.7334  140.9033  162.2900 C.ar    1  UNL1        0.1196
     12 N         137.2116  142.2991  162.4614 N.ar    1  UNL1       -0.2248
     13 C         137.9711  142.9435  163.5830 C.ar    1  UNL1        0.1479
     14 C         137.8882  144.3097  164.1965 C.ar    1  UNL1        0.0374
     15 C         138.7965  144.6783  165.3319 C.ar    1  UNL1        0.0046
     16 C         139.7877  143.6806  165.8537 C.ar    1  UNL1        0.0191
     17 C         139.8706  142.3144  165.2401 C.ar    1  UNL1        0.0815
     18 N         138.9623  141.9458  164.1048 N.ar    1  UNL1       -0.2874
     19 C         143.7480  139.4961  160.6977 C.ar    1  UNL1        0.1551
     20 C         144.0391  140.4038  159.5395 C.ar    1  UNL1        0.0750
     21 C         143.3967  140.1501  158.2079 C.ar    1  UNL1        0.1416
     22 C         142.4634  138.9887  158.0346 C.ar    1  UNL1        0.0384
     23 C         142.1724  138.0811  159.1928 C.ar    1  UNL1        0.0209
     24 C         142.8147  138.3347  160.5244 C.ar    1  UNL1        0.0851
     25 C         144.7229  141.1517  162.4466 C.3     1  UNL1        0.2525
     26 O         144.3904  139.7498  162.0293 O.3     1  UNL1       -0.4701
     27 O         143.6877  141.0578  157.0498 O.3     1  UNL1       -0.4762
     28 C         145.0858  141.1702  156.5179 C.3     1  UNL1        0.1971
     29 C         146.2503  142.0788  156.7795 C.3     1  UNL1        0.1142
     30 N         147.0629  141.3291  155.7657 N.3     1  UNL1       -0.2914
     31 C         145.8985  140.4205  155.5043 C.3     1  UNL1        0.1142
     32 H         147.8802  140.8576  156.1534 H       1  UNL1        0.1235
@<TRIPOS>BOND
     1    25    26    1
     2    26    19    1
     3    19    20   ar
     4    20    21   ar
     5    21    27    1
     6    27    28    1
     7    28    29    1
     8    29    30    1
     9    30    31    1
    10    21    22   ar
    11    22    23   ar
    12    23    24   ar
    13    24     1    1
    14     1     3    1
    15     3     4   ar
    16     4     5   ar
    17     5     6   ar
    18     6     7    1
    19     6     8   ar
    20     8    10    1
    21    10    11   ar
    22    11    12   ar
    23    12    13   ar
    24    13    14   ar
    25    14    15   ar
    26    15    16   ar
    27    16    17   ar
    28    17    18   ar
    29     8     9   ar
    30    24    19   ar
    31     9     3   ar
    32    31    28    1
    33    18    10   ar
    34    18    13   ar
    35    30    32    1
    36     1     2    1
@<TRIPOS>MOLECULE
*****
 32 36 0 0 0
SMALL
GASTEIGER

@<TRIPOS>ATOM
      1 N         143.4534  138.8452  164.9391 N.pl3   1  UNL1       -0.2802
      2 H         144.1999  138.2034  164.9491 H       1  UNL1        0.1552
      3 C         142.4875  138.8542  163.7916 C.ar    1  UNL1        0.2208
      4 N         142.6799  137.9104  162.6418 N.ar    1  UNL1       -0.2111
      5 C         141.7140  137.9194  161.4943 C.ar    1  UNL1        0.1147
      6 C         140.5556  138.8724  161.4965 C.ar    1  UNL1        0.0960
      7 CL        139.5896  138.8814  160.3490 Cl      1  UNL1       -0.0790
      8 C         140.3631  139.8163  162.6464 C.ar    1  UNL1        0.1138
      9 N         141.3291  139.8072  163.7938 N.ar    1  UNL1       -0.2111
     10 C         139.2047  140.7693  162.6487 C.ar    1  UNL1        0.1031
     11 C         137.7540  140.3938  162.5813 C.ar    1  UNL1        0.1196
     12 N         136.9464  141.6575  162.6097 N.ar    1  UNL1       -0.2248
     13 C         137.8980  142.8140  162.6946 C.ar    1  UNL1        0.1479
     14 C         137.6738  144.2960  162.7531 C.ar    1  UNL1        0.0374
     15 C         138.8454  145.2290  162.8357 C.ar    1  UNL1        0.0046
     16 C         140.2411  144.6800  162.8598 C.ar    1  UNL1        0.0191
     17 C         140.4653  143.1980  162.8013 C.ar    1  UNL1        0.0815
     18 N         139.2937  142.2650  162.7187 N.ar    1  UNL1       -0.2874
     19 C         143.5992  141.2661  165.8707 C.ar    1  UNL1        0.1551
     20 C         143.4278  142.2348  167.0032 C.ar    1  UNL1        0.0750
     21 C         142.9392  141.7512  168.3363 C.ar    1  UNL1        0.1416
     22 C         142.6220  140.2989  168.5371 C.ar    1  UNL1        0.0384
     23 C         142.7935  139.3303  167.4047 C.ar    1  UNL1        0.0209
     24 C         143.2821  139.8139  166.0715 C.ar    1  UNL1        0.0851
     25 C         143.8881  143.1823  164.1401 C.3     1  UNL1        0.2525
     26 O         144.0878  141.7497  164.5375 O.3     1  UNL1       -0.4701
     27 O         142.7679  142.7198  169.4687 O.3     1  UNL1       -0.4762
     28 C         141.4154  142.9207  170.0856 C.3     1  UNL1        0.1971
     29 C         140.5738  142.1603  171.0671 C.3     1  UNL1        0.1142
     30 N         139.5027  143.2049  170.9579 N.3     1  UNL1       -0.2914
     31 C         140.3444  143.9652  169.9764 C.3     1  UNL1        0.1142
     32 H         139.3205  143.7069  171.8269 H       1  UNL1        0.1235
@<TRIPOS>BOND
     1    25    26    1
     2    26    19    1
     3    19    20   ar
     4    20    21   ar
     5    21    27    1
     6    27    28    1
     7    28    29    1
     8    29    30    1
     9    30    31    1
    10    21    22   ar
    11    22    23   ar
    12    23    24   ar
    13    24     1    1
    14     1     3    1
    15     3     4   ar
    16     4     5   ar
    17     5     6   ar
    18     6     7    1
    19     6     8   ar
    20     8    10    1
    21    10    11   ar
    22    11    12   ar
    23    12    13   ar
    24    13    14   ar
    25    14    15   ar
    26    15    16   ar
    27    16    17   ar
    28    17    18   ar
    29     8     9   ar
    30    24    19   ar
    31     9     3   ar
    32    31    28    1
    33    18    10   ar
    34    18    13   ar
    35    30    32    1
    36     1     2    1
@<TRIPOS>MOLECULE
*****
 32 36 0 0 0
SMALL
GASTEIGER

@<TRIPOS>ATOM
      1 N         138.2674  138.8776  161.0471 N.pl3   1  UNL1       -0.2802
      2 H         137.4138  138.7004  160.5898 H       1  UNL1        0.1552
      3 C         139.5208  139.0724  160.2465 C.ar    1  UNL1        0.2208
      4 N         139.6659  138.4117  158.9077 N.ar    1  UNL1       -0.2111
      5 C         140.9193  138.6065  158.1071 C.ar    1  UNL1        0.1147
      6 C         142.0277  139.4620  158.6453 C.ar    1  UNL1        0.0960
      7 CL        143.2811  139.6568  157.8447 Cl      1  UNL1       -0.0790
      8 C         141.8826  140.1227  159.9842 C.ar    1  UNL1        0.1138
      9 N         140.6292  139.9279  160.7847 N.ar    1  UNL1       -0.2111
     10 C         142.9910  140.9782  160.5224 C.ar    1  UNL1        0.1031
     11 C         143.5180  142.2352  159.8962 C.ar    1  UNL1        0.1196
     12 N         144.6196  142.7607  160.7682 N.ar    1  UNL1       -0.2248
     13 C         144.7734  141.8285  161.9332 C.ar    1  UNL1        0.1479
     14 C         145.7000  141.8405  163.1127 C.ar    1  UNL1        0.0374
     15 C         145.6200  140.7508  164.1403 C.ar    1  UNL1        0.0046
     16 C         144.6134  139.6491  163.9885 C.ar    1  UNL1        0.0191
     17 C         143.6868  139.6371  162.8090 C.ar    1  UNL1        0.0815
     18 N         143.7668  140.7268  161.7813 N.ar    1  UNL1       -0.2874
     19 C         137.8317  140.1857  163.2492 C.ar    1  UNL1        0.1551
     20 C         137.8789  140.2607  164.7466 C.ar    1  UNL1        0.0750
     21 C         138.4089  139.1028  165.5393 C.ar    1  UNL1        0.1416
     22 C         138.8917  137.8698  164.8346 C.ar    1  UNL1        0.0384
     23 C         138.8445  137.7948  163.3372 C.ar    1  UNL1        0.0209
     24 C         138.3145  138.9527  162.5445 C.ar    1  UNL1        0.0851
     25 C         137.7682  142.7365  162.7601 C.3     1  UNL1        0.2525
     26 O         137.3017  141.3436  162.4565 O.3     1  UNL1       -0.4701
     27 O         138.4560  139.1779  167.0366 O.3     1  UNL1       -0.4762
     28 C         139.5380  139.9653  167.7143 C.3     1  UNL1        0.1971
     29 C         139.8737  140.2998  169.1375 C.3     1  UNL1        0.1142
     30 N         141.0683  141.0789  168.6726 N.3     1  UNL1       -0.2914
     31 C         140.7326  140.7443  167.2495 C.3     1  UNL1        0.1142
     32 H         141.9611  140.7009  168.9897 H       1  UNL1        0.1235
@<TRIPOS>BOND
     1    25    26    1
     2    26    19    1
     3    19    20   ar
     4    20    21   ar
     5    21    27    1
     6    27    28    1
     7    28    29    1
     8    29    30    1
     9    30    31    1
    10    21    22   ar
    11    22    23   ar
    12    23    24   ar
    13    24     1    1
    14     1     3    1
    15     3     4   ar
    16     4     5   ar
    17     5     6   ar
    18     6     7    1
    19     6     8   ar
    20     8    10    1
    21    10    11   ar
    22    11    12   ar
    23    12    13   ar
    24    13    14   ar
    25    14    15   ar
    26    15    16   ar
    27    16    17   ar
    28    17    18   ar
    29     8     9   ar
    30    24    19   ar
    31     9     3   ar
    32    31    28    1
    33    18    10   ar
    34    18    13   ar
    35    30    32    1
    36     1     2    1
@<TRIPOS>MOLECULE
*****
 32 36 0 0 0
SMALL
GASTEIGER

@<TRIPOS>ATOM
      1 N         140.4221  137.8482  164.4699 N.pl3   1  UNL1       -0.2802
      2 H         140.5054  136.8703  164.5474 H       1  UNL1        0.1552
      3 C         139.7579  138.4513  163.2677 C.ar    1  UNL1        0.2208
      4 N         138.5484  137.7950  162.6708 N.ar    1  UNL1       -0.2111
      5 C         137.8843  138.3981  161.4687 C.ar    1  UNL1        0.1147
      6 C         138.4297  139.6576  160.8634 C.ar    1  UNL1        0.0960
      7 CL        137.7655  140.2607  159.6613 Cl      1  UNL1       -0.0790
      8 C         139.6393  140.3140  161.4604 C.ar    1  UNL1        0.1138
      9 N         140.3033  139.7108  162.6624 N.ar    1  UNL1       -0.2111
     10 C         140.1846  141.5734  160.8551 C.ar    1  UNL1        0.1031
     11 C         141.1023  141.6573  159.6715 C.ar    1  UNL1        0.1196
     12 N         141.3929  143.1058  159.4121 N.ar    1  UNL1       -0.2248
     13 C         140.6548  143.9172  160.4354 C.ar    1  UNL1        0.1479
     14 C         140.5663  145.3960  160.6703 C.ar    1  UNL1        0.0374
     15 C         139.7310  145.9277  161.7970 C.ar    1  UNL1        0.0046
     16 C         138.9842  144.9806  162.6888 C.ar    1  UNL1        0.0191
     17 C         139.0728  143.5018  162.4539 C.ar    1  UNL1        0.0815
     18 N         139.9081  142.9701  161.3272 N.ar    1  UNL1       -0.2874
     19 C         140.0186  139.5495  166.3915 C.ar    1  UNL1        0.1551
     20 C         140.5559  140.4363  167.4756 C.ar    1  UNL1        0.0750
     21 C         142.0338  140.5085  167.7219 C.ar    1  UNL1        0.1416
     22 C         142.9744  139.6939  166.8842 C.ar    1  UNL1        0.0384
     23 C         142.4371  138.8072  165.8003 C.ar    1  UNL1        0.0209
     24 C         140.9592  138.7350  165.5539 C.ar    1  UNL1        0.0851
     25 C         137.7028  138.4851  166.8958 C.3     1  UNL1        0.2525
     26 O         138.5407  139.4774  166.1452 O.3     1  UNL1       -0.4701
     27 O         142.5709  141.3952  168.8059 O.3     1  UNL1       -0.4762
     28 C         141.7372  141.6866  170.0184 C.3     1  UNL1        0.1971
     29 C         141.5421  141.0319  171.3538 C.3     1  UNL1        0.1142
     30 N         140.5582  142.0988  171.7330 N.3     1  UNL1       -0.2914
     31 C         140.7533  142.7534  170.3976 C.3     1  UNL1        0.1142
     32 H         140.8501  142.6721  172.5245 H       1  UNL1        0.1235
@<TRIPOS>BOND
     1    25    26    1
     2    26    19    1
     3    19    20   ar
     4    20    21   ar
     5    21    27    1
     6    27    28    1
     7    28    29    1
     8    29    30    1
     9    30    31    1
    10    21    22   ar
    11    22    23   ar
    12    23    24   ar
    13    24     1    1
    14     1     3    1
    15     3     4   ar
    16     4     5   ar
    17     5     6   ar
    18     6     7    1
    19     6     8   ar
    20     8    10    1
    21    10    11   ar
    22    11    12   ar
    23    12    13   ar
    24    13    14   ar
    25    14    15   ar
    26    15    16   ar
    27    16    17   ar
    28    17    18   ar
    29     8     9   ar
    30    24    19   ar
    31     9     3   ar
    32    31    28    1
    33    18    10   ar
    34    18    13   ar
    35    30    32    1
    36     1     2    1
@<TRIPOS>MOLECULE
*****
 32 36 0 0 0
SMALL
GASTEIGER

@<TRIPOS>ATOM
      1 N         142.9834  144.1197  161.3796 N.pl3   1  UNL1       -0.2802
      2 H         143.2309  145.0148  161.7063 H       1  UNL1        0.1552
      3 C         143.4563  142.8976  162.1096 C.ar    1  UNL1        0.2208
      4 N         144.8539  142.8416  162.6515 N.ar    1  UNL1       -0.2111
      5 C         145.3268  141.6195  163.3815 C.ar    1  UNL1        0.1147
      6 C         144.4021  140.4535  163.5697 C.ar    1  UNL1        0.0960
      7 CL        144.8750  139.2315  164.2997 Cl      1  UNL1       -0.0790
      8 C         143.0044  140.5096  163.0278 C.ar    1  UNL1        0.1138
      9 N         142.5316  141.7316  162.2979 N.ar    1  UNL1       -0.2111
     10 C         142.0798  139.3436  163.2160 C.ar    1  UNL1        0.1031
     11 C         142.1444  138.0391  162.4785 C.ar    1  UNL1        0.1196
     12 N         141.0326  137.1667  162.9815 N.ar    1  UNL1       -0.2248
     13 C         140.2809  137.9321  164.0299 C.ar    1  UNL1        0.1479
     14 C         139.0908  137.5777  164.8713 C.ar    1  UNL1        0.0374
     15 C         138.5478  138.5688  165.8576 C.ar    1  UNL1        0.0046
     16 C         139.1950  139.9142  166.0026 C.ar    1  UNL1        0.0191
     17 C         140.3851  140.2686  165.1612 C.ar    1  UNL1        0.0815
     18 N         140.9281  139.2775  164.1749 N.ar    1  UNL1       -0.2874
     19 C         140.6697  144.3002  160.2117 C.ar    1  UNL1        0.1551
     20 C         139.8197  144.1585  158.9838 C.ar    1  UNL1        0.0750
     21 C         140.4336  143.6945  157.6962 C.ar    1  UNL1        0.1416
     22 C         141.8973  143.3723  157.6364 C.ar    1  UNL1        0.0384
     23 C         142.7472  143.5140  158.8642 C.ar    1  UNL1        0.0209
     24 C         142.1335  143.9780  160.1519 C.ar    1  UNL1        0.0851
     25 C         139.7334  146.2158  161.6962 C.3     1  UNL1        0.2525
     26 O         140.0559  144.7642  161.4993 O.3     1  UNL1       -0.4701
     27 O         139.5836  143.5528  156.4684 O.3     1  UNL1       -0.4762
     28 C         138.9499  144.7642  155.8512 C.3     1  UNL1        0.1971
     29 C         137.7422  145.0101  154.9961 C.3     1  UNL1        0.1142
     30 N         138.0537  146.4773  154.9783 N.3     1  UNL1       -0.2914
     31 C         139.2613  146.2314  155.8333 C.3     1  UNL1        0.1142
     32 H         137.3422  147.0595  155.4201 H       1  UNL1        0.1235
@<TRIPOS>BOND
     1    25    26    1
     2    26    19    1
     3    19    20   ar
     4    20    21   ar
     5    21    27    1
     6    27    28    1
     7    28    29    1
     8    29    30    1
     9    30    31    1
    10    21    22   ar
    11    22    23   ar
    12    23    24   ar
    13    24     1    1
    14     1     3    1
    15     3     4   ar
    16     4     5   ar
    17     5     6   ar
    18     6     7    1
    19     6     8   ar
    20     8    10    1
    21    10    11   ar
    22    11    12   ar
    23    12    13   ar
    24    13    14   ar
    25    14    15   ar
    26    15    16   ar
    27    16    17   ar
    28    17    18   ar
    29     8     9   ar
    30    24    19   ar
    31     9     3   ar
    32    31    28    1
    33    18    10   ar
    34    18    13   ar
    35    30    32    1
    36     1     2    1
@<TRIPOS>MOLECULE
*****
 32 36 0 0 0
SMALL
GASTEIGER

@<TRIPOS>ATOM
      1 N         140.8731  137.2242  164.2041 N.pl3   1  UNL1       -0.2802
      2 H         140.8240  136.2692  164.4380 H       1  UNL1        0.1552
      3 C         140.4484  137.6853  162.8414 C.ar    1  UNL1        0.2208
      4 N         138.9904  137.7770  162.5013 N.ar    1  UNL1       -0.2111
      5 C         138.5657  138.2382  161.1386 C.ar    1  UNL1        0.1147
      6 C         139.5990  138.6077  160.1160 C.ar    1  UNL1        0.0960
      7 CL        139.1743  139.0688  158.7533 Cl      1  UNL1       -0.0790
      8 C         141.0571  138.5160  160.4561 C.ar    1  UNL1        0.1138
      9 N         141.4817  138.0548  161.8188 N.ar    1  UNL1       -0.2111
     10 C         142.0905  138.8855  159.4335 C.ar    1  UNL1        0.1031
     11 C         142.6230  137.9896  158.3547 C.ar    1  UNL1        0.1196
     12 N         143.6344  138.7662  157.5647 N.ar    1  UNL1       -0.2248
     13 C         143.7268  140.1420  158.1552 C.ar    1  UNL1        0.1479
     14 C         144.5566  141.3371  157.7904 C.ar    1  UNL1        0.0374
     15 C         144.4321  142.6059  158.5807 C.ar    1  UNL1        0.0046
     16 C         143.4779  142.6797  159.7357 C.ar    1  UNL1        0.0191
     17 C         142.6482  141.4845  160.1005 C.ar    1  UNL1        0.0815
     18 N         142.7726  140.2157  159.3102 N.ar    1  UNL1       -0.2874
     19 C         140.4130  139.1610  165.8735 C.ar    1  UNL1        0.1551
     20 C         140.9127  140.1549  166.8798 C.ar    1  UNL1        0.0750
     21 C         142.3721  140.2058  167.2229 C.ar    1  UNL1        0.1416
     22 C         143.3317  139.2628  166.5597 C.ar    1  UNL1        0.0384
     23 C         142.8321  138.2690  165.5535 C.ar    1  UNL1        0.0209
     24 C         141.3727  138.2181  165.2103 C.ar    1  UNL1        0.0851
     25 C         137.9880  138.4355  166.4590 C.3     1  UNL1        0.2525
     26 O         138.9537  139.1101  165.5304 O.3     1  UNL1       -0.4701
     27 O         142.8716  141.1997  168.2292 O.3     1  UNL1       -0.4762
     28 C         142.6147  140.9808  169.6907 C.3     1  UNL1        0.1971
     29 C         142.8893  139.8707  170.6613 C.3     1  UNL1        0.1142
     30 N         142.2514  140.6715  171.7577 N.3     1  UNL1       -0.2914
     31 C         141.9769  141.7816  170.7870 C.3     1  UNL1        0.1142
     32 H         142.8887  140.9262  172.5122 H       1  UNL1        0.1235
@<TRIPOS>BOND
     1    25    26    1
     2    26    19    1
     3    19    20   ar
     4    20    21   ar
     5    21    27    1
     6    27    28    1
     7    28    29    1
     8    29    30    1
     9    30    31    1
    10    21    22   ar
    11    22    23   ar
    12    23    24   ar
    13    24     1    1
    14     1     3    1
    15     3     4   ar
    16     4     5   ar
    17     5     6   ar
    18     6     7    1
    19     6     8   ar
    20     8    10    1
    21    10    11   ar
    22    11    12   ar
    23    12    13   ar
    24    13    14   ar
    25    14    15   ar
    26    15    16   ar
    27    16    17   ar
    28    17    18   ar
    29     8     9   ar
    30    24    19   ar
    31     9     3   ar
    32    31    28    1
    33    18    10   ar
    34    18    13   ar
    35    30    32    1
    36     1     2    1
@<TRIPOS>MOLECULE
*****
 32 36 0 0 0
SMALL
GASTEIGER

@<TRIPOS>ATOM
      1 N         138.0391  139.2383  161.1342 N.pl3   1  UNL1       -0.2802
      2 H         137.3521  138.6778  160.7064 H       1  UNL1        0.1552
      3 C         138.9065  140.1312  160.2974 C.ar    1  UNL1        0.2208
      4 N         138.5138  140.4490  158.8851 N.ar    1  UNL1       -0.2111
      5 C         139.3811  141.3419  158.0483 C.ar    1  UNL1        0.1147
      6 C         140.6413  141.9171  158.6238 C.ar    1  UNL1        0.0960
      7 CL        141.5086  142.8101  157.7870 Cl      1  UNL1       -0.0790
      8 C         141.0340  141.5994  160.0363 C.ar    1  UNL1        0.1138
      9 N         140.1666  140.7064  160.8730 N.ar    1  UNL1       -0.2111
     10 C         142.2941  142.1746  160.6118 C.ar    1  UNL1        0.1031
     11 C         143.6930  141.8044  160.2168 C.ar    1  UNL1        0.1196
     12 N         144.6400  142.6220  161.0443 N.ar    1  UNL1       -0.2248
     13 C         143.8264  143.4975  161.9507 C.ar    1  UNL1        0.1479
     14 C         144.2184  144.5107  162.9850 C.ar    1  UNL1        0.0374
     15 C         143.1605  145.2474  163.7519 C.ar    1  UNL1        0.0046
     16 C         141.7107  144.9708  163.4846 C.ar    1  UNL1        0.0191
     17 C         141.3187  143.9576  162.4504 C.ar    1  UNL1        0.0815
     18 N         142.3765  143.2209  161.6834 N.ar    1  UNL1       -0.2874
     19 C         137.7415  140.3442  163.4663 C.ar    1  UNL1        0.1551
     20 C         137.9209  140.3050  164.9551 C.ar    1  UNL1        0.0750
     21 C         138.5774  139.1207  165.6004 C.ar    1  UNL1        0.1416
     22 C         139.0545  137.9757  164.7571 C.ar    1  UNL1        0.0384
     23 C         138.8750  138.0149  163.2684 C.ar    1  UNL1        0.0209
     24 C         138.2185  139.1991  162.6229 C.ar    1  UNL1        0.0851
     25 C         137.7810  142.8572  162.8079 C.3     1  UNL1        0.2525
     26 O         137.0850  141.5285  162.8209 O.3     1  UNL1       -0.4701
     27 O         138.7569  139.0816  167.0891 O.3     1  UNL1       -0.4762
     28 C         139.5733  140.1372  167.7741 C.3     1  UNL1        0.1971
     29 C         140.6570  141.0827  167.3480 C.3     1  UNL1        0.1142
     30 N         140.7278  141.6300  168.7428 N.3     1  UNL1       -0.2914
     31 C         139.6442  140.6845  169.1689 C.3     1  UNL1        0.1142
     32 H         140.4739  142.6151  168.8171 H       1  UNL1        0.1235
@<TRIPOS>BOND
     1    25    26    1
     2    26    19    1
     3    19    20   ar
     4    20    21   ar
     5    21    27    1
     6    27    28    1
     7    28    29    1
     8    29    30    1
     9    30    31    1
    10    21    22   ar
    11    22    23   ar
    12    23    24   ar
    13    24     1    1
    14     1     3    1
    15     3     4   ar
    16     4     5   ar
    17     5     6   ar
    18     6     7    1
    19     6     8   ar
    20     8    10    1
    21    10    11   ar
    22    11    12   ar
    23    12    13   ar
    24    13    14   ar
    25    14    15   ar
    26    15    16   ar
    27    16    17   ar
    28    17    18   ar
    29     8     9   ar
    30    24    19   ar
    31     9     3   ar
    32    31    28    1
    33    18    10   ar
    34    18    13   ar
    35    30    32    1
    36     1     2    1
@<TRIPOS>MOLECULE
*****
 32 36 0 0 0
SMALL
GASTEIGER

@<TRIPOS>ATOM
      1 N         137.4655  141.0401  163.9579 N.pl3   1  UNL1       -0.2802
      2 H         136.5078  141.1880  164.1315 H       1  UNL1        0.1552
      3 C         137.9173  140.5512  162.6137 C.ar    1  UNL1        0.2208
      4 N         138.2337  139.0990  162.4113 N.ar    1  UNL1       -0.2111
      5 C         138.6855  138.6102  161.0671 C.ar    1  UNL1        0.1147
      6 C         138.8209  139.5735  159.9253 C.ar    1  UNL1        0.0960
      7 CL        139.2727  139.0846  158.5811 Cl      1  UNL1       -0.0790
      8 C         138.5046  141.0258  160.1277 C.ar    1  UNL1        0.1138
      9 N         138.0528  141.5146  161.4719 N.ar    1  UNL1       -0.2111
     10 C         138.6400  141.9891  158.9860 C.ar    1  UNL1        0.1031
     11 C         137.8454  141.9661  157.7140 C.ar    1  UNL1        0.1196
     12 N         138.3081  143.1074  156.8576 N.ar    1  UNL1       -0.2248
     13 C         139.3888  143.8358  157.6004 C.ar    1  UNL1        0.1479
     14 C         140.2125  145.0391  157.2489 C.ar    1  UNL1        0.0374
     15 C         141.2413  145.5512  158.2129 C.ar    1  UNL1        0.0046
     16 C         141.4464  144.8601  159.5283 C.ar    1  UNL1        0.0191
     17 C         140.6227  143.6568  159.8797 C.ar    1  UNL1        0.0815
     18 N         139.5939  143.1447  158.9158 N.ar    1  UNL1       -0.2874
     19 C         138.8304  140.2195  166.0106 C.ar    1  UNL1        0.1551
     20 C         139.8378  140.4831  167.0904 C.ar    1  UNL1        0.0750
     21 C         140.4876  141.8308  167.1970 C.ar    1  UNL1        0.1416
     22 C         140.1301  142.9150  166.2240 C.ar    1  UNL1        0.0384
     23 C         139.1227  142.6513  165.1443 C.ar    1  UNL1        0.0209
     24 C         138.4728  141.3036  165.0376 C.ar    1  UNL1        0.0851
     25 C         137.4902  138.2757  167.0948 C.3     1  UNL1        0.2525
     26 O         138.1805  138.8718  165.9040 O.3     1  UNL1       -0.4701
     27 O         141.4949  142.0944  168.2768 O.3     1  UNL1       -0.4762
     28 C         141.0619  142.1360  169.7123 C.3     1  UNL1        0.1971
     29 C         141.6358  141.6441  171.0080 C.3     1  UNL1        0.1142
     30 N         140.4496  142.1950  171.7425 N.3     1  UNL1       -0.2914
     31 C         139.8758  142.6869  170.4469 C.3     1  UNL1        0.1142
     32 H         140.6775  142.9363  172.4051 H       1  UNL1        0.1235
@<TRIPOS>BOND
     1    25    26    1
     2    26    19    1
     3    19    20   ar
     4    20    21   ar
     5    21    27    1
     6    27    28    1
     7    28    29    1
     8    29    30    1
     9    30    31    1
    10    21    22   ar
    11    22    23   ar
    12    23    24   ar
    13    24     1    1
    14     1     3    1
    15     3     4   ar
    16     4     5   ar
    17     5     6   ar
    18     6     7    1
    19     6     8   ar
    20     8    10    1
    21    10    11   ar
    22    11    12   ar
    23    12    13   ar
    24    13    14   ar
    25    14    15   ar
    26    15    16   ar
    27    16    17   ar
    28    17    18   ar
    29     8     9   ar
    30    24    19   ar
    31     9     3   ar
    32    31    28    1
    33    18    10   ar
    34    18    13   ar
    35    30    32    1
    36     1     2    1
@<TRIPOS>MOLECULE
*****
 32 36 0 0 0
SMALL
GASTEIGER

@<TRIPOS>ATOM
      1 N         137.2508  140.8507  163.3780 N.pl3   1  UNL1       -0.2802
      2 H         136.2796  140.8452  163.5394 H       1  UNL1        0.1552
      3 C         137.7909  140.4435  162.0392 C.ar    1  UNL1        0.2208
      4 N         138.2972  139.0475  161.8277 N.ar    1  UNL1       -0.2111
      5 C         138.8373  138.6404  160.4889 C.ar    1  UNL1        0.1147
      6 C         138.8711  139.6293  159.3615 C.ar    1  UNL1        0.0960
      7 CL        139.4112  139.2221  158.0227 Cl      1  UNL1       -0.0790
      8 C         138.3648  141.0254  159.5730 C.ar    1  UNL1        0.1138
      9 N         137.8247  141.4324  160.9118 N.ar    1  UNL1       -0.2111
     10 C         138.3986  142.0143  158.4457 C.ar    1  UNL1        0.1031
     11 C         139.3232  143.1900  158.3316 C.ar    1  UNL1        0.1196
     12 N         139.0098  143.9034  157.0499 N.ar    1  UNL1       -0.2248
     13 C         137.8915  143.1686  156.3718 C.ar    1  UNL1        0.1479
     14 C         137.1685  143.4118  155.0803 C.ar    1  UNL1        0.0374
     15 C         136.0677  142.4876  154.6515 C.ar    1  UNL1        0.0046
     16 C         135.6900  141.3200  155.5142 C.ar    1  UNL1        0.0191
     17 C         136.4131  141.0768  156.8057 C.ar    1  UNL1        0.0815
     18 N         137.5138  142.0011  157.2345 N.ar    1  UNL1       -0.2874
     19 C         138.6110  140.2753  165.5155 C.ar    1  UNL1        0.1551
     20 C         139.5506  140.6909  166.6085 C.ar    1  UNL1        0.0750
     21 C         140.0694  142.0976  166.6570 C.ar    1  UNL1        0.1416
     22 C         139.6486  143.0885  165.6125 C.ar    1  UNL1        0.0384
     23 C         138.7091  142.6729  164.5195 C.ar    1  UNL1        0.0209
     24 C         138.1903  141.2662  164.4710 C.ar    1  UNL1        0.0851
     25 C         139.0117  137.7425  165.0979 C.3     1  UNL1        0.2525
     26 O         138.0922  138.8687  165.4670 O.3     1  UNL1       -0.4701
     27 O         141.0088  142.5131  167.7499 O.3     1  UNL1       -0.4762
     28 C         140.4807  142.7988  169.1245 C.3     1  UNL1        0.1971
     29 C         139.8887  141.9711  170.2265 C.3     1  UNL1        0.1142
     30 N         139.7337  143.2030  171.0684 N.3     1  UNL1       -0.2914
     31 C         140.3257  144.0306  169.9664 C.3     1  UNL1        0.1142
     32 H         140.2868  143.1939  171.9254 H       1  UNL1        0.1235
@<TRIPOS>BOND
     1    25    26    1
     2    26    19    1
     3    19    20   ar
     4    20    21   ar
     5    21    27    1
     6    27    28    1
     7    28    29    1
     8    29    30    1
     9    30    31    1
    10    21    22   ar
    11    22    23   ar
    12    23    24   ar
    13    24     1    1
    14     1     3    1
    15     3     4   ar
    16     4     5   ar
    17     5     6   ar
    18     6     7    1
    19     6     8   ar
    20     8    10    1
    21    10    11   ar
    22    11    12   ar
    23    12    13   ar
    24    13    14   ar
    25    14    15   ar
    26    15    16   ar
    27    16    17   ar
    28    17    18   ar
    29     8     9   ar
    30    24    19   ar
    31     9     3   ar
    32    31    28    1
    33    18    10   ar
    34    18    13   ar
    35    30    32    1
    36     1     2    1
