@<TRIPOS>MOLECULE
*****
 31 34 0 0 0
SMALL
GASTEIGER

@<TRIPOS>ATOM
      1 C         139.2012  140.5001  165.1306 C.3     1  UNL1        0.2023
      2 O         139.2740  141.4640  163.9836 O.3     1  UNL1       -0.3495
      3 C         140.0397  142.7458  164.1286 C.3     1  UNL1        0.1145
      4 C         140.8054  144.0274  164.2735 C.3     1  UNL1        0.0463
      5 C         140.8781  144.9913  163.1266 C.3     1  UNL1        0.0746
      6 N         140.1853  144.6736  161.8347 N.3     1  UNL1       -0.2722
      7 C         139.4196  143.3919  161.6897 C.3     1  UNL1        0.0746
      8 C         139.3469  142.4280  162.8367 C.3     1  UNL1        0.0463
      9 C         140.7326  143.0635  165.4204 C.3     1  UNL1        0.1254
     10 N         140.6597  142.0995  166.5674 N.am    1  UNL1       -0.2543
     11 C         139.8941  140.8178  166.4225 C.2     1  UNL1        0.2572
     12 O         139.8213  139.8538  167.5694 O.2     1  UNL1       -0.2719
     13 C         141.3526  142.4172  167.8593 C.ar    1  UNL1        0.0540
     14 C         142.7847  142.0190  168.0600 C.ar    1  UNL1        0.0149
     15 C         143.4776  142.3367  169.3519 C.ar    1  UNL1        0.0013
     16 C         142.7383  143.0527  170.4431 C.ar    1  UNL1        0.0001
     17 C         141.3061  143.4511  170.2424 C.ar    1  UNL1        0.0013
     18 C         140.6132  143.1333  168.9505 C.ar    1  UNL1        0.0149
     19 C         138.4356  139.2183  164.9856 C.3     1  UNL1        0.1484
     20 C         139.0427  138.0612  164.2492 C.2     1  UNL1        0.3201
     21 O         140.1650  137.2829  164.8697 O.2     1  UNL1       -0.2500
     22 C         139.2948  138.0715  161.6634 C.3     1  UNL1        0.2556
     23 O         138.5277  137.6823  162.8923 O.3     1  UNL1       -0.4443
     24 C         140.2581  145.6376  160.6877 C.3     1  UNL1        0.0768
     25 C         140.9921  145.2593  159.4355 C.3     1  UNL1        0.0437
     26 C         140.2475  145.1298  158.1397 C.ar    1  UNL1       -0.0208
     27 C         139.6861  143.8015  157.7268 C.ar    1  UNL1       -0.0042
     28 C         138.9416  143.6720  156.4312 C.ar    1  UNL1       -0.0003
     29 C         138.7583  144.8709  155.5484 C.ar    1  UNL1       -0.0000
     30 C         139.3196  146.1991  155.9613 C.ar    1  UNL1       -0.0003
     31 C         140.0642  146.3286  157.2570 C.ar    1  UNL1       -0.0042
@<TRIPOS>BOND
     1    22    23    1
     2    23    20    1
     3    20    21    2
     4    20    19    1
     5    19     1    1
     6     1     2    1
     7     2     3    1
     8     3     4    1
     9     4     5    1
    10     5     6    1
    11     6    24    1
    12    24    25    1
    13    25    26    1
    14    26    27   ar
    15    27    28   ar
    16    28    29   ar
    17    29    30   ar
    18    30    31   ar
    19     6     7    1
    20     7     8    1
    21     3     9    1
    22     9    10    1
    23    10    13    1
    24    13    14   ar
    25    14    15   ar
    26    15    16   ar
    27    16    17   ar
    28    17    18   ar
    29    10    11   am
    30    11    12    2
    31    11     1    1
    32     8     3    1
    33    18    13   ar
    34    31    26   ar
@<TRIPOS>MOLECULE
*****
 31 34 0 0 0
SMALL
GASTEIGER

@<TRIPOS>ATOM
      1 C         143.1785  143.2215  160.7135 C.3     1  UNL1        0.2023
      2 O         142.8972  143.8530  159.3824 O.3     1  UNL1       -0.3495
      3 C         141.5883  144.5451  159.1422 C.3     1  UNL1        0.1145
      4 C         140.2794  145.2372  158.9020 C.3     1  UNL1        0.0463
      5 C         139.9981  145.8687  157.5708 C.3     1  UNL1        0.0746
      6 N         141.0257  145.8081  156.4798 N.3     1  UNL1       -0.2722
      7 C         142.3346  145.1160  156.7200 C.3     1  UNL1        0.0746
      8 C         142.6159  144.4845  158.0511 C.3     1  UNL1        0.0463
      9 C         140.5606  144.6057  160.2332 C.3     1  UNL1        0.1254
     10 N         140.8420  143.9742  161.5644 N.am    1  UNL1       -0.2543
     11 C         142.1509  143.2821  161.8046 C.2     1  UNL1        0.2572
     12 O         142.4322  142.6506  163.1358 O.2     1  UNL1       -0.2719
     13 C         139.8144  144.0348  162.6554 C.ar    1  UNL1        0.0540
     14 C         138.5315  143.2692  162.5208 C.ar    1  UNL1        0.0149
     15 C         137.5039  143.3298  163.6118 C.ar    1  UNL1        0.0013
     16 C         137.7591  144.1560  164.8374 C.ar    1  UNL1        0.0001
     17 C         139.0420  144.9217  164.9721 C.ar    1  UNL1        0.0013
     18 C         140.0696  144.8611  163.8811 C.ar    1  UNL1        0.0149
     19 C         144.4875  142.5294  160.9537 C.3     1  UNL1        0.1484
     20 C         144.5076  141.1051  161.4239 C.2     1  UNL1        0.3201
     21 O         143.7031  140.0654  160.7013 O.2     1  UNL1       -0.2500
     22 C         145.6964  141.7536  163.6410 C.3     1  UNL1        0.2556
     23 O         145.3320  140.7205  162.6165 O.3     1  UNL1       -0.4443
     24 C         140.7444  146.4397  155.1486 C.3     1  UNL1        0.0768
     25 C         139.4045  147.0581  154.8800 C.3     1  UNL1        0.0437
     26 C         139.2692  148.5499  154.8010 C.ar    1  UNL1       -0.0208
     27 C         138.6166  149.3042  155.9213 C.ar    1  UNL1       -0.0042
     28 C         138.4814  150.7960  155.8422 C.ar    1  UNL1       -0.0003
     29 C         138.9987  151.5334  154.6428 C.ar    1  UNL1       -0.0000
     30 C         139.6513  150.7791  153.5225 C.ar    1  UNL1       -0.0003
     31 C         139.7865  149.2874  153.6016 C.ar    1  UNL1       -0.0042
@<TRIPOS>BOND
     1    22    23    1
     2    23    20    1
     3    20    21    2
     4    20    19    1
     5    19     1    1
     6     1     2    1
     7     2     3    1
     8     3     4    1
     9     4     5    1
    10     5     6    1
    11     6    24    1
    12    24    25    1
    13    25    26    1
    14    26    27   ar
    15    27    28   ar
    16    28    29   ar
    17    29    30   ar
    18    30    31   ar
    19     6     7    1
    20     7     8    1
    21     3     9    1
    22     9    10    1
    23    10    13    1
    24    13    14   ar
    25    14    15   ar
    26    15    16   ar
    27    16    17   ar
    28    17    18   ar
    29    10    11   am
    30    11    12    2
    31    11     1    1
    32     8     3    1
    33    18    13   ar
    34    31    26   ar
@<TRIPOS>MOLECULE
*****
 31 34 0 0 0
SMALL
GASTEIGER

@<TRIPOS>ATOM
      1 C         139.0409  140.5573  165.1472 C.3     1  UNL1        0.2023
      2 O         139.1258  141.5055  163.9880 O.3     1  UNL1       -0.3495
      3 C         139.9244  142.7695  164.1099 C.3     1  UNL1        0.1145
      4 C         140.7229  144.0334  164.2318 C.3     1  UNL1        0.0463
      5 C         140.8078  144.9816  163.0726 C.3     1  UNL1        0.0746
      6 N         140.0942  144.6659  161.7916 N.3     1  UNL1       -0.2722
      7 C         139.2957  143.4020  161.6697 C.3     1  UNL1        0.0746
      8 C         139.2108  142.4538  162.8288 C.3     1  UNL1        0.0463
      9 C         140.6380  143.0852  165.3909 C.3     1  UNL1        0.1254
     10 N         140.5531  142.1369  166.5501 N.am    1  UNL1       -0.2543
     11 C         139.7546  140.8730  166.4282 C.2     1  UNL1        0.2572
     12 O         139.6696  139.9247  167.5874 O.2     1  UNL1       -0.2719
     13 C         141.2667  142.4526  167.8312 C.ar    1  UNL1        0.0540
     14 C         142.6929  142.0279  168.0195 C.ar    1  UNL1        0.0149
     15 C         143.4066  142.3436  169.3005 C.ar    1  UNL1        0.0013
     16 C         142.6940  143.0840  170.3932 C.ar    1  UNL1        0.0001
     17 C         141.2677  143.5087  170.2049 C.ar    1  UNL1        0.0013
     18 C         140.5541  143.1930  168.9239 C.ar    1  UNL1        0.0149
     19 C         138.2424  139.2934  165.0253 C.3     1  UNL1        0.1484
     20 C         138.8053  138.1195  164.2803 C.2     1  UNL1        0.3201
     21 O         138.3747  137.8505  162.8688 O.2     1  UNL1       -0.2500
     22 C         141.2622  137.3609  164.6518 C.3     1  UNL1        0.2556
     23 O         139.7988  137.2146  164.9467 O.3     1  UNL1       -0.4443
     24 C         140.1791  145.6142  160.6324 C.3     1  UNL1        0.0768
     25 C         141.1843  145.3801  159.5440 C.3     1  UNL1        0.0437
     26 C         141.6537  143.9874  159.2435 C.ar    1  UNL1       -0.0208
     27 C         140.9409  143.1614  158.2142 C.ar    1  UNL1       -0.0042
     28 C         141.4104  141.7688  157.9137 C.ar    1  UNL1       -0.0003
     29 C         142.5926  141.2023  158.6426 C.ar    1  UNL1       -0.0000
     30 C         143.3055  142.0283  159.6719 C.ar    1  UNL1       -0.0003
     31 C         142.8360  143.4208  159.9723 C.ar    1  UNL1       -0.0042
@<TRIPOS>BOND
     1    22    23    1
     2    23    20    1
     3    20    21    2
     4    20    19    1
     5    19     1    1
     6     1     2    1
     7     2     3    1
     8     3     4    1
     9     4     5    1
    10     5     6    1
    11     6    24    1
    12    24    25    1
    13    25    26    1
    14    26    27   ar
    15    27    28   ar
    16    28    29   ar
    17    29    30   ar
    18    30    31   ar
    19     6     7    1
    20     7     8    1
    21     3     9    1
    22     9    10    1
    23    10    13    1
    24    13    14   ar
    25    14    15   ar
    26    15    16   ar
    27    16    17   ar
    28    17    18   ar
    29    10    11   am
    30    11    12    2
    31    11     1    1
    32     8     3    1
    33    18    13   ar
    34    31    26   ar
@<TRIPOS>MOLECULE
*****
 31 34 0 0 0
SMALL
GASTEIGER

@<TRIPOS>ATOM
      1 C         142.2615  140.0393  164.0462 C.3     1  UNL1        0.2023
      2 O         141.9235  141.0418  162.9829 O.3     1  UNL1       -0.3495
      3 C         141.5655  142.4477  163.3643 C.3     1  UNL1        0.1145
      4 C         141.2076  143.8535  163.7457 C.3     1  UNL1        0.0463
      5 C         140.8696  144.8561  162.6824 C.3     1  UNL1        0.0746
      6 N         140.8895  144.4529  161.2378 N.3     1  UNL1       -0.2722
      7 C         141.2475  143.0470  160.8564 C.3     1  UNL1        0.0746
      8 C         141.5855  142.0445  161.9197 C.3     1  UNL1        0.0463
      9 C         141.5456  142.8510  164.8089 C.3     1  UNL1        0.1254
     10 N         141.8836  141.8483  165.8722 N.am    1  UNL1       -0.2543
     11 C         142.2416  140.4425  165.4908 C.2     1  UNL1        0.2572
     12 O         142.5796  139.4398  166.5541 O.2     1  UNL1       -0.2719
     13 C         141.8636  142.2516  167.3169 C.ar    1  UNL1        0.0540
     14 C         143.1153  142.1601  168.1384 C.ar    1  UNL1        0.0149
     15 C         143.0953  142.5634  169.5831 C.ar    1  UNL1        0.0013
     16 C         141.8237  143.0580  170.2062 C.ar    1  UNL1        0.0001
     17 C         140.5719  143.1495  169.3846 C.ar    1  UNL1        0.0013
     18 C         140.5919  142.7462  167.9399 C.ar    1  UNL1        0.0149
     19 C         142.6195  138.6334  163.6648 C.3     1  UNL1        0.1484
     20 C         141.5404  137.6070  163.4857 C.2     1  UNL1        0.3201
     21 O         141.0084  136.8628  164.6745 O.2     1  UNL1       -0.2500
     22 C         139.7924  138.0738  161.6212 C.3     1  UNL1        0.2556
     23 O         140.9933  137.3248  162.1179 O.3     1  UNL1       -0.4443
     24 C         140.5515  145.4555  160.1745 C.3     1  UNL1        0.0768
     25 C         141.1164  145.3034  158.7933 C.3     1  UNL1        0.0437
     26 C         140.1963  145.2192  157.6117 C.ar    1  UNL1       -0.0208
     27 C         139.5126  143.9249  157.2841 C.ar    1  UNL1       -0.0042
     28 C         138.5925  143.8408  156.1025 C.ar    1  UNL1       -0.0003
     29 C         138.3561  145.0510  155.2484 C.ar    1  UNL1       -0.0000
     30 C         139.0397  146.3454  155.5760 C.ar    1  UNL1       -0.0003
     31 C         139.9598  146.4294  156.7576 C.ar    1  UNL1       -0.0042
@<TRIPOS>BOND
     1    22    23    1
     2    23    20    1
     3    20    21    2
     4    20    19    1
     5    19     1    1
     6     1     2    1
     7     2     3    1
     8     3     4    1
     9     4     5    1
    10     5     6    1
    11     6    24    1
    12    24    25    1
    13    25    26    1
    14    26    27   ar
    15    27    28   ar
    16    28    29   ar
    17    29    30   ar
    18    30    31   ar
    19     6     7    1
    20     7     8    1
    21     3     9    1
    22     9    10    1
    23    10    13    1
    24    13    14   ar
    25    14    15   ar
    26    15    16   ar
    27    16    17   ar
    28    17    18   ar
    29    10    11   am
    30    11    12    2
    31    11     1    1
    32     8     3    1
    33    18    13   ar
    34    31    26   ar
@<TRIPOS>MOLECULE
*****
 31 34 0 0 0
SMALL
GASTEIGER

@<TRIPOS>ATOM
      1 C         139.5579  140.2238  160.8647 C.3     1  UNL1        0.2023
      2 O         139.7165  139.3786  159.6357 O.3     1  UNL1       -0.3495
      3 C         141.0642  138.8295  159.2718 C.3     1  UNL1        0.1145
      4 C         142.4118  138.2805  158.9080 C.3     1  UNL1        0.0463
      5 C         142.5704  137.4353  157.6790 C.3     1  UNL1        0.0746
      6 N         141.3814  137.1390  156.8139 N.3     1  UNL1       -0.2722
      7 C         140.0337  137.6881  157.1777 C.3     1  UNL1        0.0746
      8 C         139.8752  138.5333  158.4067 C.3     1  UNL1        0.0463
      9 C         142.2532  139.1257  160.1369 C.3     1  UNL1        0.1254
     10 N         142.0946  139.9710  161.3659 N.am    1  UNL1       -0.2543
     11 C         140.7470  140.5200  161.7298 C.2     1  UNL1        0.2572
     12 O         140.5883  141.3653  162.9588 O.2     1  UNL1       -0.2719
     13 C         143.2836  140.2672  162.2311 C.ar    1  UNL1        0.0540
     14 C         143.6623  139.3238  163.3341 C.ar    1  UNL1        0.0149
     15 C         144.8513  139.6200  164.1992 C.ar    1  UNL1        0.0013
     16 C         145.6617  140.8596  163.9613 C.ar    1  UNL1        0.0001
     17 C         145.2831  141.8030  162.8583 C.ar    1  UNL1        0.0013
     18 C         144.0941  141.5068  161.9931 C.ar    1  UNL1        0.0149
     19 C         138.2102  140.7729  161.2286 C.3     1  UNL1        0.1484
     20 C         138.0127  142.2546  161.3526 C.2     1  UNL1        0.3201
     21 O         138.3981  143.1600  160.2204 O.2     1  UNL1       -0.2500
     22 C         137.8085  144.2152  163.0450 C.3     1  UNL1        0.2556
     23 O         137.4296  142.8310  162.6086 O.3     1  UNL1       -0.4443
     24 C         141.5400  136.2938  155.5848 C.3     1  UNL1        0.0768
     25 C         142.8135  135.5352  155.3556 C.3     1  UNL1        0.0437
     26 C         142.9602  134.1388  155.8835 C.ar    1  UNL1       -0.0208
     27 C         142.0670  133.0467  155.3741 C.ar    1  UNL1       -0.0042
     28 C         142.2137  131.6504  155.9020 C.ar    1  UNL1       -0.0003
     29 C         143.2536  131.3461  156.9392 C.ar    1  UNL1       -0.0000
     30 C         144.1468  132.4382  157.4486 C.ar    1  UNL1       -0.0003
     31 C         144.0001  133.8345  156.9207 C.ar    1  UNL1       -0.0042
@<TRIPOS>BOND
     1    22    23    1
     2    23    20    1
     3    20    21    2
     4    20    19    1
     5    19     1    1
     6     1     2    1
     7     2     3    1
     8     3     4    1
     9     4     5    1
    10     5     6    1
    11     6    24    1
    12    24    25    1
    13    25    26    1
    14    26    27   ar
    15    27    28   ar
    16    28    29   ar
    17    29    30   ar
    18    30    31   ar
    19     6     7    1
    20     7     8    1
    21     3     9    1
    22     9    10    1
    23    10    13    1
    24    13    14   ar
    25    14    15   ar
    26    15    16   ar
    27    16    17   ar
    28    17    18   ar
    29    10    11   am
    30    11    12    2
    31    11     1    1
    32     8     3    1
    33    18    13   ar
    34    31    26   ar
@<TRIPOS>MOLECULE
*****
 31 34 0 0 0
SMALL
GASTEIGER

@<TRIPOS>ATOM
      1 C         140.0247  139.9673  164.4062 C.3     1  UNL1        0.2023
      2 O         140.9334  140.3692  163.2824 O.3     1  UNL1       -0.3495
      3 C         142.0493  141.3403  163.5309 C.3     1  UNL1        0.1145
      4 C         143.1652  142.3114  163.7794 C.3     1  UNL1        0.0463
      5 C         144.0738  142.7133  162.6557 C.3     1  UNL1        0.0746
      6 N         143.8665  142.1442  161.2834 N.3     1  UNL1       -0.2722
      7 C         142.7506  141.1731  161.0349 C.3     1  UNL1        0.0746
      8 C         141.8420  140.7712  162.1586 C.3     1  UNL1        0.0463
      9 C         142.2566  141.9094  164.9032 C.3     1  UNL1        0.1254
     10 N         141.3479  141.5075  166.0270 N.am    1  UNL1       -0.2543
     11 C         140.2320  140.5364  165.7784 C.2     1  UNL1        0.2572
     12 O         139.3233  140.1344  166.9022 O.2     1  UNL1       -0.2719
     13 C         141.5552  142.0766  167.3992 C.ar    1  UNL1        0.0540
     14 C         140.4656  142.8736  168.0531 C.ar    1  UNL1        0.0149
     15 C         140.6729  143.4427  169.4254 C.ar    1  UNL1        0.0013
     16 C         141.9697  143.2148  170.1438 C.ar    1  UNL1        0.0001
     17 C         143.0594  142.4178  169.4899 C.ar    1  UNL1        0.0013
     18 C         142.8521  141.8487  168.1177 C.ar    1  UNL1        0.0149
     19 C         138.9088  138.9962  164.1577 C.3     1  UNL1        0.1484
     20 C         138.8321  138.2596  162.8532 C.2     1  UNL1        0.3201
     21 O         139.9390  137.3310  162.4501 O.2     1  UNL1       -0.2500
     22 C         137.6482  139.5594  160.9404 C.3     1  UNL1        0.2556
     23 O         137.6486  138.4518  161.9519 O.3     1  UNL1       -0.4443
     24 C         144.7752  142.5461  160.1597 C.3     1  UNL1        0.0768
     25 C         144.2967  142.4597  158.7407 C.3     1  UNL1        0.0437
     26 C         145.2615  142.1211  157.6431 C.ar    1  UNL1       -0.0208
     27 C         146.5614  142.8613  157.5324 C.ar    1  UNL1       -0.0042
     28 C         147.5261  142.5227  156.4349 C.ar    1  UNL1       -0.0003
     29 C         147.1909  141.4439  155.4480 C.ar    1  UNL1       -0.0000
     30 C         145.8910  140.7037  155.5588 C.ar    1  UNL1       -0.0003
     31 C         144.9263  141.0423  156.6563 C.ar    1  UNL1       -0.0042
@<TRIPOS>BOND
     1    22    23    1
     2    23    20    1
     3    20    21    2
     4    20    19    1
     5    19     1    1
     6     1     2    1
     7     2     3    1
     8     3     4    1
     9     4     5    1
    10     5     6    1
    11     6    24    1
    12    24    25    1
    13    25    26    1
    14    26    27   ar
    15    27    28   ar
    16    28    29   ar
    17    29    30   ar
    18    30    31   ar
    19     6     7    1
    20     7     8    1
    21     3     9    1
    22     9    10    1
    23    10    13    1
    24    13    14   ar
    25    14    15   ar
    26    15    16   ar
    27    16    17   ar
    28    17    18   ar
    29    10    11   am
    30    11    12    2
    31    11     1    1
    32     8     3    1
    33    18    13   ar
    34    31    26   ar
@<TRIPOS>MOLECULE
*****
 31 34 0 0 0
SMALL
GASTEIGER

@<TRIPOS>ATOM
      1 C         141.8944  143.6356  160.2465 C.3     1  UNL1        0.2023
      2 O         141.8670  142.6911  161.4114 O.3     1  UNL1       -0.3495
      3 C         142.8428  141.5537  161.4779 C.3     1  UNL1        0.1145
      4 C         143.8186  140.4165  161.5443 C.3     1  UNL1        0.0463
      5 C         143.7912  139.4719  162.7092 C.3     1  UNL1        0.0746
      6 N         142.7880  139.6646  163.8076 N.3     1  UNL1       -0.2722
      7 C         141.8122  140.8019  163.7412 C.3     1  UNL1        0.0746
      8 C         141.8396  141.7464  162.5763 C.3     1  UNL1        0.0463
      9 C         143.8460  141.3611  160.3795 C.3     1  UNL1        0.1254
     10 N         143.8734  142.3057  159.2145 N.am    1  UNL1       -0.2543
     11 C         142.8976  143.4430  159.1481 C.2     1  UNL1        0.2572
     12 O         142.9250  144.3876  157.9831 O.2     1  UNL1       -0.2719
     13 C         144.8766  142.1130  158.1161 C.ar    1  UNL1        0.0540
     14 C         144.6106  141.1209  157.0230 C.ar    1  UNL1        0.0149
     15 C         145.6138  140.9282  155.9246 C.ar    1  UNL1        0.0013
     16 C         146.8829  141.7277  155.9193 C.ar    1  UNL1        0.0001
     17 C         147.1490  142.7198  157.0125 C.ar    1  UNL1        0.0013
     18 C         146.1458  142.9125  158.1109 C.ar    1  UNL1        0.0149
     19 C         140.9186  144.7730  160.1800 C.3     1  UNL1        0.1484
     20 C         140.0189  145.0584  161.3458 C.2     1  UNL1        0.3201
     21 O         140.3663  146.1530  162.3108 O.2     1  UNL1       -0.2500
     22 C         138.0347  144.3188  162.8510 C.3     1  UNL1        0.2556
     23 O         138.7720  144.2493  161.5465 O.3     1  UNL1       -0.4443
     24 C         142.7606  138.7199  164.9725 C.3     1  UNL1        0.0768
     25 C         143.2073  139.1858  166.3266 C.3     1  UNL1        0.0437
     26 C         142.1920  139.4833  167.3900 C.ar    1  UNL1       -0.0208
     27 C         140.8129  139.9309  167.0061 C.ar    1  UNL1       -0.0042
     28 C         139.7977  140.2283  168.0695 C.ar    1  UNL1       -0.0003
     29 C         140.1617  140.0781  169.5169 C.ar    1  UNL1       -0.0000
     30 C         141.5409  139.6305  169.9008 C.ar    1  UNL1       -0.0003
     31 C         142.5561  139.3331  168.8374 C.ar    1  UNL1       -0.0042
@<TRIPOS>BOND
     1    22    23    1
     2    23    20    1
     3    20    21    2
     4    20    19    1
     5    19     1    1
     6     1     2    1
     7     2     3    1
     8     3     4    1
     9     4     5    1
    10     5     6    1
    11     6    24    1
    12    24    25    1
    13    25    26    1
    14    26    27   ar
    15    27    28   ar
    16    28    29   ar
    17    29    30   ar
    18    30    31   ar
    19     6     7    1
    20     7     8    1
    21     3     9    1
    22     9    10    1
    23    10    13    1
    24    13    14   ar
    25    14    15   ar
    26    15    16   ar
    27    16    17   ar
    28    17    18   ar
    29    10    11   am
    30    11    12    2
    31    11     1    1
    32     8     3    1
    33    18    13   ar
    34    31    26   ar
@<TRIPOS>MOLECULE
*****
 31 34 0 0 0
SMALL
GASTEIGER

@<TRIPOS>ATOM
      1 C         141.2579  144.2608  161.9768 C.3     1  UNL1        0.2023
      2 O         141.0226  144.8379  160.6124 O.3     1  UNL1       -0.3495
      3 C         140.3495  144.0136  159.5552 C.3     1  UNL1        0.1145
      4 C         139.6764  143.1893  158.4982 C.3     1  UNL1        0.0463
      5 C         139.4411  143.7664  157.1338 C.3     1  UNL1        0.0746
      6 N         139.8789  145.1678  156.8265 N.3     1  UNL1       -0.2722
      7 C         140.5520  145.9921  157.8836 C.3     1  UNL1        0.0746
      8 C         140.7873  145.4150  159.2479 C.3     1  UNL1        0.0463
      9 C         139.9117  142.6122  159.8626 C.3     1  UNL1        0.1254
     10 N         140.1471  142.0351  161.2270 N.am    1  UNL1       -0.2543
     11 C         140.8202  142.8594  162.2841 C.2     1  UNL1        0.2572
     12 O         141.0555  142.2823  163.6485 O.2     1  UNL1       -0.2719
     13 C         139.7093  140.6337  161.5343 C.ar    1  UNL1        0.0540
     14 C         138.2775  140.3548  161.8834 C.ar    1  UNL1        0.0149
     15 C         137.8397  138.9534  162.1907 C.ar    1  UNL1        0.0013
     16 C         138.8338  137.8309  162.1489 C.ar    1  UNL1        0.0001
     17 C         140.2658  138.1098  161.7999 C.ar    1  UNL1        0.0013
     18 C         140.7035  139.5112  161.4926 C.ar    1  UNL1        0.0149
     19 C         141.9311  145.0851  163.0339 C.3     1  UNL1        0.1484
     20 C         143.4020  144.9293  163.2830 C.2     1  UNL1        0.3201
     21 O         143.9902  145.3586  164.5944 O.2     1  UNL1       -0.2500
     22 C         144.6470  142.8893  162.2640 C.3     1  UNL1        0.2556
     23 O         144.2847  144.3443  162.2207 O.3     1  UNL1       -0.4443
     24 C         139.6435  145.7448  155.4620 C.3     1  UNL1        0.0768
     25 C         138.6323  146.8365  155.2737 C.3     1  UNL1        0.0437
     26 C         139.0858  148.2505  155.0615 C.ar    1  UNL1       -0.0208
     27 C         140.1246  148.5573  154.0238 C.ar    1  UNL1       -0.0042
     28 C         140.5780  149.9712  153.8116 C.ar    1  UNL1       -0.0003
     29 C         139.9927  151.0785  154.6371 C.ar    1  UNL1       -0.0000
     30 C         138.9539  150.7717  155.6748 C.ar    1  UNL1       -0.0003
     31 C         138.5004  149.3578  155.8870 C.ar    1  UNL1       -0.0042
@<TRIPOS>BOND
     1    22    23    1
     2    23    20    1
     3    20    21    2
     4    20    19    1
     5    19     1    1
     6     1     2    1
     7     2     3    1
     8     3     4    1
     9     4     5    1
    10     5     6    1
    11     6    24    1
    12    24    25    1
    13    25    26    1
    14    26    27   ar
    15    27    28   ar
    16    28    29   ar
    17    29    30   ar
    18    30    31   ar
    19     6     7    1
    20     7     8    1
    21     3     9    1
    22     9    10    1
    23    10    13    1
    24    13    14   ar
    25    14    15   ar
    26    15    16   ar
    27    16    17   ar
    28    17    18   ar
    29    10    11   am
    30    11    12    2
    31    11     1    1
    32     8     3    1
    33    18    13   ar
    34    31    26   ar
@<TRIPOS>MOLECULE
*****
 31 34 0 0 0
SMALL
GASTEIGER

@<TRIPOS>ATOM
      1 C         140.5157  139.4989  164.8683 C.3     1  UNL1        0.2023
      2 O         141.2160  140.0536  163.6634 O.3     1  UNL1       -0.3495
      3 C         142.0721  141.2787  163.7913 C.3     1  UNL1        0.1145
      4 C         142.9282  142.5037  163.9193 C.3     1  UNL1        0.0463
      5 C         143.6285  143.0585  162.7144 C.3     1  UNL1        0.0746
      6 N         143.4728  142.3881  161.3816 N.3     1  UNL1       -0.2722
      7 C         142.6168  141.1631  161.2536 C.3     1  UNL1        0.0746
      8 C         141.9164  140.6084  162.4585 C.3     1  UNL1        0.0463
      9 C         142.2279  141.9490  165.1242 C.3     1  UNL1        0.1254
     10 N         141.5275  141.3942  166.3291 N.am    1  UNL1       -0.2543
     11 C         140.6714  140.1692  166.2011 C.2     1  UNL1        0.2572
     12 O         139.9710  139.6144  167.4061 O.2     1  UNL1       -0.2719
     13 C         141.6832  142.0646  167.6619 C.ar    1  UNL1        0.0540
     14 C         142.9727  141.9400  168.4180 C.ar    1  UNL1        0.0149
     15 C         143.1284  142.6103  169.7508 C.ar    1  UNL1        0.0013
     16 C         141.9946  143.4052  170.3276 C.ar    1  UNL1        0.0001
     17 C         140.7051  143.5298  169.5715 C.ar    1  UNL1        0.0013
     18 C         140.5493  142.8595  168.2387 C.ar    1  UNL1        0.0149
     19 C         139.6596  138.2738  164.7404 C.3     1  UNL1        0.1484
     20 C         139.5644  137.5594  163.4249 C.2     1  UNL1        0.3201
     21 O         140.7793  136.9045  162.8374 O.2     1  UNL1       -0.2500
     22 C         137.9074  138.5557  161.6895 C.3     1  UNL1        0.2556
     23 O         138.2543  137.4998  162.6969 O.3     1  UNL1       -0.4443
     24 C         144.1732  142.9429  160.1767 C.3     1  UNL1        0.0768
     25 C         143.5041  142.9012  158.8348 C.3     1  UNL1        0.0437
     26 C         142.4673  143.9260  158.4815 C.ar    1  UNL1       -0.0208
     27 C         141.4542  144.3509  159.5028 C.ar    1  UNL1       -0.0042
     28 C         140.4174  145.3756  159.1495 C.ar    1  UNL1       -0.0003
     29 C         140.3937  145.9755  157.7748 C.ar    1  UNL1       -0.0000
     30 C         141.4069  145.5507  156.7536 C.ar    1  UNL1       -0.0003
     31 C         142.4436  144.5259  157.1069 C.ar    1  UNL1       -0.0042
@<TRIPOS>BOND
     1    22    23    1
     2    23    20    1
     3    20    21    2
     4    20    19    1
     5    19     1    1
     6     1     2    1
     7     2     3    1
     8     3     4    1
     9     4     5    1
    10     5     6    1
    11     6    24    1
    12    24    25    1
    13    25    26    1
    14    26    27   ar
    15    27    28   ar
    16    28    29   ar
    17    29    30   ar
    18    30    31   ar
    19     6     7    1
    20     7     8    1
    21     3     9    1
    22     9    10    1
    23    10    13    1
    24    13    14   ar
    25    14    15   ar
    26    15    16   ar
    27    16    17   ar
    28    17    18   ar
    29    10    11   am
    30    11    12    2
    31    11     1    1
    32     8     3    1
    33    18    13   ar
    34    31    26   ar
