@<TRIPOS>MOLECULE
*****
 30 33 0 0 0
SMALL
GASTEIGER

@<TRIPOS>ATOM
      1 C         141.1001  141.9666  169.3048 C.ar    1  UNL1        0.1737
      2 C         141.3712  141.4734  170.6951 C.ar    1  UNL1        0.0401
      3 C         142.1558  140.2121  170.9038 C.ar    1  UNL1        0.0046
      4 C         142.6694  139.4441  169.7222 C.ar    1  UNL1        0.0217
      5 C         142.3983  139.9374  168.3318 C.ar    1  UNL1        0.1426
      6 C         141.6137  141.1986  168.1231 C.ar    1  UNL1        0.1895
      7 O         141.3427  141.6919  166.7327 O.3     1  UNL1       -0.4686
      8 C         141.8562  140.9239  165.5510 C.3     1  UNL1        0.2104
      9 C         142.6408  139.6627  165.7597 C.3     1  UNL1        0.1779
     10 C         143.1544  138.8947  164.5779 C.3     1  UNL1        0.0300
     11 S         142.9119  139.1694  167.1500 S.O2    1  UNL1        0.0138
     12 O         143.4230  138.3051  168.2645 O.2     1  UNL1       -0.1685
     13 O         143.6030  138.1012  166.3553 O.2     1  UNL1       -0.1685
     14 C         141.5852  141.4172  164.1605 C.ar    1  UNL1        0.0191
     15 C         140.3113  141.0380  163.4652 C.ar    1  UNL1        0.0023
     16 C         140.0403  141.5312  162.0748 C.ar    1  UNL1        0.0367
     17 C         141.0430  142.4037  161.3798 C.ar    1  UNL1        0.1385
     18 C         142.3169  142.7829  162.0751 C.ar    1  UNL1        0.0367
     19 C         142.5880  142.2897  163.4655 C.ar    1  UNL1        0.0023
     20 O         140.7720  142.8969  159.9893 O.3     1  UNL1       -0.4754
     21 C         140.1456  144.2437  159.7801 C.3     1  UNL1        0.2068
     22 C         140.5776  145.4102  160.6184 C.3     1  UNL1        0.0646
     23 C         139.6344  146.0015  161.6237 C.3     1  UNL1        0.0759
     24 N         139.2584  145.2217  162.8486 N.3     1  UNL1       -0.2726
     25 C         137.9691  144.4859  163.0642 C.3     1  UNL1        0.0721
     26 C         138.0195  143.8502  164.4219 C.3     1  UNL1        0.0188
     27 C         139.3399  144.1932  165.0456 C.3     1  UNL1        0.0188
     28 C         140.1056  145.0408  164.0732 C.3     1  UNL1        0.0721
     29 C         140.4110  144.3442  170.0934 C.3     1  UNL1        0.2526
     30 O         140.3155  143.2279  169.0961 O.3     1  UNL1       -0.4683
@<TRIPOS>BOND
     1    29    30    1
     2    30     1    1
     3     1     2   ar
     4     2     3   ar
     5     3     4   ar
     6     4     5   ar
     7     5     6   ar
     8     6     7    1
     9     7     8    1
    10     8    14    1
    11    14    15   ar
    12    15    16   ar
    13    16    17   ar
    14    17    20    1
    15    20    21    1
    16    21    22    1
    17    22    23    1
    18    23    24    1
    19    24    25    1
    20    25    26    1
    21    26    27    1
    22    27    28    1
    23    17    18   ar
    24    18    19   ar
    25     8     9    1
    26     9    10    1
    27     9    11    1
    28    11    12    2
    29    11    13    2
    30     6     1   ar
    31    19    14   ar
    32    11     5    1
    33    28    24    1
@<TRIPOS>MOLECULE
*****
 30 33 0 0 0
SMALL
GASTEIGER

@<TRIPOS>ATOM
      1 C         142.7473  142.0603  167.8187 C.ar    1  UNL1        0.1737
      2 C         143.0042  142.5255  169.2213 C.ar    1  UNL1        0.0401
      3 C         142.0642  142.1379  170.3241 C.ar    1  UNL1        0.0046
      4 C         140.8673  141.2850  170.0242 C.ar    1  UNL1        0.0217
      5 C         140.6104  140.8198  168.6216 C.ar    1  UNL1        0.1426
      6 C         141.5504  141.2074  167.5188 C.ar    1  UNL1        0.1895
      7 O         141.2934  140.7422  166.1160 O.3     1  UNL1       -0.4686
      8 C         140.0965  139.8893  165.8162 C.3     1  UNL1        0.2104
      9 C         139.1565  139.5016  166.9189 C.3     1  UNL1        0.1779
     10 C         137.9596  138.6486  166.6190 C.3     1  UNL1        0.0300
     11 S         139.4134  139.9668  168.3216 S.O2    1  UNL1        0.0138
     12 O         139.2329  140.1590  169.7983 O.2     1  UNL1       -0.1685
     13 O         138.1538  139.1806  168.5345 O.2     1  UNL1       -0.1685
     14 C         139.8396  139.4240  164.4134 C.ar    1  UNL1        0.0191
     15 C         140.3578  138.0920  163.9583 C.ar    1  UNL1        0.0023
     16 C         140.1009  137.6267  162.5557 C.ar    1  UNL1        0.0367
     17 C         139.3258  138.4934  161.6081 C.ar    1  UNL1        0.1385
     18 C         138.8076  139.8255  162.0632 C.ar    1  UNL1        0.0367
     19 C         139.0645  140.2908  163.4659 C.ar    1  UNL1        0.0023
     20 O         139.0688  138.0282  160.2054 O.3     1  UNL1       -0.4754
     21 C         139.8410  138.6223  159.0649 C.3     1  UNL1        0.2068
     22 C         141.3383  138.5348  159.0467 C.3     1  UNL1        0.0646
     23 C         142.1628  139.6800  159.5554 C.3     1  UNL1        0.0759
     24 N         142.7353  139.6346  160.9410 N.3     1  UNL1       -0.2726
     25 C         143.6018  138.5461  161.5018 C.3     1  UNL1        0.0721
     26 C         143.9440  138.9085  162.9166 C.3     1  UNL1        0.0188
     27 C         143.2890  140.2210  163.2303 C.3     1  UNL1        0.0188
     28 C         142.5420  140.6698  162.0092 C.3     1  UNL1        0.0721
     29 C         143.1726  143.1889  165.5175 C.3     1  UNL1        0.2526
     30 O         143.6873  142.4480  166.7159 O.3     1  UNL1       -0.4683
@<TRIPOS>BOND
     1    29    30    1
     2    30     1    1
     3     1     2   ar
     4     2     3   ar
     5     3     4   ar
     6     4     5   ar
     7     5     6   ar
     8     6     7    1
     9     7     8    1
    10     8    14    1
    11    14    15   ar
    12    15    16   ar
    13    16    17   ar
    14    17    20    1
    15    20    21    1
    16    21    22    1
    17    22    23    1
    18    23    24    1
    19    24    25    1
    20    25    26    1
    21    26    27    1
    22    27    28    1
    23    17    18   ar
    24    18    19   ar
    25     8     9    1
    26     9    10    1
    27     9    11    1
    28    11    12    2
    29    11    13    2
    30     6     1   ar
    31    19    14   ar
    32    11     5    1
    33    28    24    1
@<TRIPOS>MOLECULE
*****
 30 33 0 0 0
SMALL
GASTEIGER

@<TRIPOS>ATOM
      1 C         142.7724  142.1432  167.3209 C.ar    1  UNL1        0.1737
      2 C         143.3395  142.3384  168.6957 C.ar    1  UNL1        0.0401
      3 C         142.6483  141.7388  169.8843 C.ar    1  UNL1        0.0046
      4 C         141.3900  140.9440  169.6980 C.ar    1  UNL1        0.0217
      5 C         140.8229  140.7487  168.3231 C.ar    1  UNL1        0.1426
      6 C         141.5141  141.3483  167.1346 C.ar    1  UNL1        0.1895
      7 O         140.9470  141.1530  165.7597 O.3     1  UNL1       -0.4686
      8 C         139.6886  140.3581  165.5734 C.3     1  UNL1        0.2104
      9 C         138.9974  139.7585  166.7620 C.3     1  UNL1        0.1779
     10 C         137.7390  138.9636  166.5756 C.3     1  UNL1        0.0300
     11 S         139.5645  139.9538  168.1368 S.O2    1  UNL1        0.0138
     12 O         139.7124  139.8619  169.6267 O.2     1  UNL1       -0.1685
     13 O         138.3575  139.1270  168.4679 O.2     1  UNL1       -0.1685
     14 C         139.1215  140.1628  164.1985 C.ar    1  UNL1        0.0191
     15 C         139.4788  138.9400  163.4066 C.ar    1  UNL1        0.0023
     16 C         138.9117  138.7447  162.0317 C.ar    1  UNL1        0.0367
     17 C         137.9873  139.7721  161.4489 C.ar    1  UNL1        0.1385
     18 C         137.6300  140.9949  162.2408 C.ar    1  UNL1        0.0367
     19 C         138.1971  141.1903  163.6156 C.ar    1  UNL1        0.0023
     20 O         137.4201  139.5768  160.0740 O.3     1  UNL1       -0.4754
     21 C         137.8735  140.4532  158.9442 C.3     1  UNL1        0.2068
     22 C         139.2986  140.9168  158.8800 C.3     1  UNL1        0.0646
     23 C         139.6426  142.3344  159.2293 C.3     1  UNL1        0.0759
     24 N         140.2629  142.6500  160.5580 N.3     1  UNL1       -0.2726
     25 C         140.0422  143.8985  161.3598 C.3     1  UNL1        0.0721
     26 C         140.8557  143.7927  162.6157 C.3     1  UNL1        0.0188
     27 C         141.5792  142.4789  162.5901 C.3     1  UNL1        0.0188
     28 C         141.2128  141.7727  161.3184 C.3     1  UNL1        0.0721
     29 C         144.1475  141.8547  165.1355 C.3     1  UNL1        0.2526
     30 O         143.4637  142.7428  166.1323 O.3     1  UNL1       -0.4683
@<TRIPOS>BOND
     1    29    30    1
     2    30     1    1
     3     1     2   ar
     4     2     3   ar
     5     3     4   ar
     6     4     5   ar
     7     5     6   ar
     8     6     7    1
     9     7     8    1
    10     8    14    1
    11    14    15   ar
    12    15    16   ar
    13    16    17   ar
    14    17    20    1
    15    20    21    1
    16    21    22    1
    17    22    23    1
    18    23    24    1
    19    24    25    1
    20    25    26    1
    21    26    27    1
    22    27    28    1
    23    17    18   ar
    24    18    19   ar
    25     8     9    1
    26     9    10    1
    27     9    11    1
    28    11    12    2
    29    11    13    2
    30     6     1   ar
    31    19    14   ar
    32    11     5    1
    33    28    24    1
@<TRIPOS>MOLECULE
*****
 30 33 0 0 0
SMALL
GASTEIGER

@<TRIPOS>ATOM
      1 C         139.3175  137.0494  155.3486 C.ar    1  UNL1        0.1737
      2 C         140.0843  136.3598  154.2594 C.ar    1  UNL1        0.0401
      3 C         141.5764  136.2380  154.3541 C.ar    1  UNL1        0.0046
      4 C         142.3016  136.8057  155.5380 C.ar    1  UNL1        0.0217
      5 C         141.5347  137.4952  156.6273 C.ar    1  UNL1        0.1426
      6 C         140.0427  137.6170  156.5325 C.ar    1  UNL1        0.1895
      7 O         139.2758  138.3066  157.6218 O.3     1  UNL1       -0.4686
      8 C         140.0010  138.8743  158.8058 C.3     1  UNL1        0.2104
      9 C         141.4931  138.7525  158.9005 C.3     1  UNL1        0.1779
     10 C         142.2183  139.3202  160.0845 C.3     1  UNL1        0.0300
     11 S         142.2599  138.0629  157.8113 S.O2    1  UNL1        0.0138
     12 O         143.4184  137.5030  157.0402 O.2     1  UNL1       -0.1685
     13 O         143.3875  138.4362  158.7275 O.2     1  UNL1       -0.1685
     14 C         139.2342  139.5639  159.8951 C.ar    1  UNL1        0.0191
     15 C         138.6819  138.7699  161.0416 C.ar    1  UNL1        0.0023
     16 C         137.9150  139.4594  162.1309 C.ar    1  UNL1        0.0367
     17 C         137.7006  140.9429  162.0736 C.ar    1  UNL1        0.1385
     18 C         138.2529  141.7368  160.9271 C.ar    1  UNL1        0.0367
     19 C         139.0197  141.0473  159.8378 C.ar    1  UNL1        0.0023
     20 O         136.9337  141.6325  163.1629 O.3     1  UNL1       -0.4754
     21 C         137.6222  142.6255  164.0517 C.3     1  UNL1        0.2068
     22 C         139.0603  142.4247  164.4278 C.3     1  UNL1        0.0646
     23 C         139.4171  141.5268  165.5751 C.3     1  UNL1        0.0759
     24 N         139.3820  140.0374  165.4008 N.3     1  UNL1       -0.2726
     25 C         138.2572  139.1291  165.8009 C.3     1  UNL1        0.0721
     26 C         138.6455  137.7251  165.4433 C.3     1  UNL1        0.0188
     27 C         140.0103  137.7655  164.8221 C.3     1  UNL1        0.0188
     28 C         140.4655  139.1946  164.7959 C.3     1  UNL1        0.0721
     29 C         137.2029  137.8693  154.0812 C.3     1  UNL1        0.2526
     30 O         137.8255  137.1712  155.2539 O.3     1  UNL1       -0.4683
@<TRIPOS>BOND
     1    29    30    1
     2    30     1    1
     3     1     2   ar
     4     2     3   ar
     5     3     4   ar
     6     4     5   ar
     7     5     6   ar
     8     6     7    1
     9     7     8    1
    10     8    14    1
    11    14    15   ar
    12    15    16   ar
    13    16    17   ar
    14    17    20    1
    15    20    21    1
    16    21    22    1
    17    22    23    1
    18    23    24    1
    19    24    25    1
    20    25    26    1
    21    26    27    1
    22    27    28    1
    23    17    18   ar
    24    18    19   ar
    25     8     9    1
    26     9    10    1
    27     9    11    1
    28    11    12    2
    29    11    13    2
    30     6     1   ar
    31    19    14   ar
    32    11     5    1
    33    28    24    1
@<TRIPOS>MOLECULE
*****
 30 33 0 0 0
SMALL
GASTEIGER

@<TRIPOS>ATOM
      1 C         141.6772  141.7197  168.9315 C.ar    1  UNL1        0.1737
      2 C         141.1297  141.8133  170.3248 C.ar    1  UNL1        0.0401
      3 C         139.8594  141.0996  170.6810 C.ar    1  UNL1        0.0046
      4 C         139.1365  140.2923  169.6439 C.ar    1  UNL1        0.0217
      5 C         139.6840  140.1987  168.2506 C.ar    1  UNL1        0.1426
      6 C         140.9543  140.9124  167.8943 C.ar    1  UNL1        0.1895
      7 O         141.5018  140.8187  166.5009 O.3     1  UNL1       -0.4686
      8 C         140.7789  140.0114  165.4638 C.3     1  UNL1        0.2104
      9 C         139.5086  139.2977  165.8200 C.3     1  UNL1        0.1779
     10 C         138.7857  138.4903  164.7828 C.3     1  UNL1        0.0300
     11 S         138.9611  139.3913  167.2134 S.O2    1  UNL1        0.0138
     12 O         138.0531  139.1789  168.3883 O.2     1  UNL1       -0.1685
     13 O         137.9229  138.5102  166.5842 O.2     1  UNL1       -0.1685
     14 C         141.3264  139.9178  164.0703 C.ar    1  UNL1        0.0191
     15 C         142.5005  139.0293  163.7840 C.ar    1  UNL1        0.0023
     16 C         143.0480  138.9356  162.3907 C.ar    1  UNL1        0.0367
     17 C         142.4213  139.7304  161.2837 C.ar    1  UNL1        0.1385
     18 C         141.2472  140.6189  161.5700 C.ar    1  UNL1        0.0367
     19 C         140.6997  140.7126  162.9633 C.ar    1  UNL1        0.0023
     20 O         142.9688  139.6368  159.8902 O.3     1  UNL1       -0.4754
     21 C         143.9524  140.6579  159.4007 C.3     1  UNL1        0.2068
     22 C         143.8482  142.0813  159.8623 C.3     1  UNL1        0.0646
     23 C         144.8227  142.6164  160.8693 C.3     1  UNL1        0.0759
     24 N         144.4840  142.5863  162.3302 N.3     1  UNL1       -0.2726
     25 C         143.3738  143.3460  162.9939 C.3     1  UNL1        0.0721
     26 C         143.3997  143.0203  164.4579 C.3     1  UNL1        0.0188
     27 C         144.5259  142.0593  164.6991 C.3     1  UNL1        0.0188
     28 C         145.1961  141.7910  163.3841 C.3     1  UNL1        0.0721
     29 C         144.0531  142.5447  169.5828 C.3     1  UNL1        0.2526
     30 O         142.9475  142.4334  168.5752 O.3     1  UNL1       -0.4683
@<TRIPOS>BOND
     1    29    30    1
     2    30     1    1
     3     1     2   ar
     4     2     3   ar
     5     3     4   ar
     6     4     5   ar
     7     5     6   ar
     8     6     7    1
     9     7     8    1
    10     8    14    1
    11    14    15   ar
    12    15    16   ar
    13    16    17   ar
    14    17    20    1
    15    20    21    1
    16    21    22    1
    17    22    23    1
    18    23    24    1
    19    24    25    1
    20    25    26    1
    21    26    27    1
    22    27    28    1
    23    17    18   ar
    24    18    19   ar
    25     8     9    1
    26     9    10    1
    27     9    11    1
    28    11    12    2
    29    11    13    2
    30     6     1   ar
    31    19    14   ar
    32    11     5    1
    33    28    24    1
@<TRIPOS>MOLECULE
*****
 30 33 0 0 0
SMALL
GASTEIGER

@<TRIPOS>ATOM
      1 C         143.1010  142.4228  160.8623 C.ar    1  UNL1        0.1737
      2 C         143.3286  142.9528  159.4777 C.ar    1  UNL1        0.0401
      3 C         142.1697  143.4481  158.6643 C.ar    1  UNL1        0.0046
      4 C         140.7832  143.4133  159.2355 C.ar    1  UNL1        0.0217
      5 C         140.5556  142.8833  160.6201 C.ar    1  UNL1        0.1426
      6 C         141.7145  142.3880  161.4335 C.ar    1  UNL1        0.1895
      7 O         141.4869  141.8580  162.8182 O.3     1  UNL1       -0.4686
      8 C         140.1003  141.8233  163.3894 C.3     1  UNL1        0.2104
      9 C         138.9414  142.3186  162.5760 C.3     1  UNL1        0.1779
     10 C         137.5549  142.2838  163.1473 C.3     1  UNL1        0.0300
     11 S         139.1690  142.8486  161.1914 S.O2    1  UNL1        0.0138
     12 O         138.8803  143.4376  159.8424 O.2     1  UNL1       -0.1685
     13 O         137.6822  143.0184  161.2941 O.2     1  UNL1       -0.1685
     14 C         139.8727  141.2932  164.7741 C.ar    1  UNL1        0.0191
     15 C         139.5861  139.8355  164.9815 C.ar    1  UNL1        0.0023
     16 C         139.3585  139.3055  166.3661 C.ar    1  UNL1        0.0367
     17 C         139.4174  140.2331  167.5433 C.ar    1  UNL1        0.1385
     18 C         139.7039  141.6908  167.3360 C.ar    1  UNL1        0.0367
     19 C         139.9316  142.2209  165.9514 C.ar    1  UNL1        0.0023
     20 O         139.1897  139.7031  168.9280 O.3     1  UNL1       -0.4754
     21 C         140.1529  140.0395  170.0276 C.3     1  UNL1        0.2068
     22 C         141.5652  139.5380  169.9670 C.3     1  UNL1        0.0646
     23 C         142.6789  140.4751  169.6042 C.3     1  UNL1        0.0759
     24 N         142.9380  140.8105  168.1653 N.3     1  UNL1       -0.2726
     25 C         143.2385  142.1746  167.6183 C.3     1  UNL1        0.0721
     26 C         143.4284  142.0480  166.1357 C.3     1  UNL1        0.0188
     27 C         143.2453  140.6057  165.7664 C.3     1  UNL1        0.0188
     28 C         142.9423  139.8409  167.0208 C.3     1  UNL1        0.0721
     29 C         144.4427  140.4560  161.9024 C.3     1  UNL1        0.2526
     30 O         144.2599  141.9275  161.6757 O.3     1  UNL1       -0.4683
@<TRIPOS>BOND
     1    29    30    1
     2    30     1    1
     3     1     2   ar
     4     2     3   ar
     5     3     4   ar
     6     4     5   ar
     7     5     6   ar
     8     6     7    1
     9     7     8    1
    10     8    14    1
    11    14    15   ar
    12    15    16   ar
    13    16    17   ar
    14    17    20    1
    15    20    21    1
    16    21    22    1
    17    22    23    1
    18    23    24    1
    19    24    25    1
    20    25    26    1
    21    26    27    1
    22    27    28    1
    23    17    18   ar
    24    18    19   ar
    25     8     9    1
    26     9    10    1
    27     9    11    1
    28    11    12    2
    29    11    13    2
    30     6     1   ar
    31    19    14   ar
    32    11     5    1
    33    28    24    1
@<TRIPOS>MOLECULE
*****
 30 33 0 0 0
SMALL
GASTEIGER

@<TRIPOS>ATOM
      1 C         140.1136  140.4397  169.5323 C.ar    1  UNL1        0.1737
      2 C         140.5919  140.5349  170.9508 C.ar    1  UNL1        0.0401
      3 C         141.8767  141.2432  171.2632 C.ar    1  UNL1        0.0046
      4 C         142.6832  141.8563  170.1571 C.ar    1  UNL1        0.0217
      5 C         142.2050  141.7611  168.7386 C.ar    1  UNL1        0.1426
      6 C         140.9202  141.0528  168.4262 C.ar    1  UNL1        0.1895
      7 O         140.4420  140.9576  167.0076 O.3     1  UNL1       -0.4686
      8 C         141.2485  141.5707  165.9015 C.3     1  UNL1        0.2104
      9 C         142.5333  142.2790  166.2139 C.3     1  UNL1        0.1779
     10 C         143.3399  142.8921  165.1077 C.3     1  UNL1        0.0300
     11 S         143.0116  142.3742  167.6324 S.O2    1  UNL1        0.0138
     12 O         143.8740  142.7246  168.8087 O.2     1  UNL1       -0.1685
     13 O         144.1177  143.1090  166.9347 O.2     1  UNL1       -0.1685
     14 C         140.7703  141.4755  164.4829 C.ar    1  UNL1        0.0191
     15 C         139.3885  141.9362  164.1248 C.ar    1  UNL1        0.0023
     16 C         138.9102  141.8410  162.7063 C.ar    1  UNL1        0.0367
     17 C         139.8138  141.2851  161.6459 C.ar    1  UNL1        0.1385
     18 C         141.1956  140.8244  162.0041 C.ar    1  UNL1        0.0367
     19 C         141.6739  140.9195  163.4226 C.ar    1  UNL1        0.0023
     20 O         139.3356  141.1899  160.2274 O.3     1  UNL1       -0.4754
     21 C         138.7261  139.9146  159.7254 C.3     1  UNL1        0.2068
     22 C         139.1529  138.5995  160.3071 C.3     1  UNL1        0.0646
     23 C         138.4817  138.0717  161.5403 C.3     1  UNL1        0.0759
     24 N         139.2702  137.8880  162.8031 N.3     1  UNL1       -0.2726
     25 C         138.8164  138.2494  164.1864 C.3     1  UNL1        0.0721
     26 C         139.9166  137.8954  165.1425 C.3     1  UNL1        0.0188
     27 C         141.0505  137.3151  164.3501 C.3     1  UNL1        0.0188
     28 C         140.6509  137.3106  162.9043 C.3     1  UNL1        0.0721
     29 C         137.7429  139.6576  170.2521 C.3     1  UNL1        0.2526
     30 O         138.8288  139.7314  169.2200 O.3     1  UNL1       -0.4683
@<TRIPOS>BOND
     1    29    30    1
     2    30     1    1
     3     1     2   ar
     4     2     3   ar
     5     3     4   ar
     6     4     5   ar
     7     5     6   ar
     8     6     7    1
     9     7     8    1
    10     8    14    1
    11    14    15   ar
    12    15    16   ar
    13    16    17   ar
    14    17    20    1
    15    20    21    1
    16    21    22    1
    17    22    23    1
    18    23    24    1
    19    24    25    1
    20    25    26    1
    21    26    27    1
    22    27    28    1
    23    17    18   ar
    24    18    19   ar
    25     8     9    1
    26     9    10    1
    27     9    11    1
    28    11    12    2
    29    11    13    2
    30     6     1   ar
    31    19    14   ar
    32    11     5    1
    33    28    24    1
@<TRIPOS>MOLECULE
*****
 30 33 0 0 0
SMALL
GASTEIGER

@<TRIPOS>ATOM
      1 C         143.0024  143.2418  158.6772 C.ar    1  UNL1        0.1737
      2 C         142.8268  143.8761  157.3294 C.ar    1  UNL1        0.0401
      3 C         141.8166  144.9686  157.1405 C.ar    1  UNL1        0.0046
      4 C         140.9818  145.4268  158.2994 C.ar    1  UNL1        0.0217
      5 C         141.1574  144.7925  159.6473 C.ar    1  UNL1        0.1426
      6 C         142.1677  143.7000  159.8362 C.ar    1  UNL1        0.1895
      7 O         142.3433  143.0657  161.1842 O.3     1  UNL1       -0.4686
      8 C         141.5085  143.5239  162.3431 C.3     1  UNL1        0.2104
      9 C         140.4983  144.6165  162.1542 C.3     1  UNL1        0.1779
     10 C         139.6635  145.0747  163.3133 C.3     1  UNL1        0.0300
     11 S         140.3227  145.2508  160.8063 S.O2    1  UNL1        0.0138
     12 O         139.7934  146.1531  159.7313 O.2     1  UNL1       -0.1685
     13 O         139.3041  146.0224  161.5920 O.2     1  UNL1       -0.1685
     14 C         141.6841  142.8896  163.6911 C.ar    1  UNL1        0.0191
     15 C         142.8632  143.2542  164.5437 C.ar    1  UNL1        0.0023
     16 C         143.0387  142.6199  165.8915 C.ar    1  UNL1        0.0367
     17 C         142.0352  141.6211  166.3868 C.ar    1  UNL1        0.1385
     18 C         140.8562  141.2566  165.5343 C.ar    1  UNL1        0.0367
     19 C         140.6806  141.8908  164.1864 C.ar    1  UNL1        0.0023
     20 O         142.2108  140.9868  167.7348 O.3     1  UNL1       -0.4754
     21 C         142.3242  139.4958  167.8530 C.3     1  UNL1        0.2068
     22 C         143.3496  138.7553  167.0467 C.3     1  UNL1        0.0646
     23 C         142.9891  138.2040  165.6991 C.3     1  UNL1        0.0759
     24 N         143.4129  138.9271  164.4551 N.3     1  UNL1       -0.2726
     25 C         144.6539  139.7546  164.2957 C.3     1  UNL1        0.0721
     26 C         144.6783  140.2885  162.8942 C.3     1  UNL1        0.0188
     27 C         143.4523  139.7910  162.1873 C.3     1  UNL1        0.0188
     28 C         142.6703  138.9496  163.1520 C.3     1  UNL1        0.0721
     29 C         144.6725  141.5234  157.6733 C.3     1  UNL1        0.2526
     30 O         144.0127  142.1492  158.8661 O.3     1  UNL1       -0.4683
@<TRIPOS>BOND
     1    29    30    1
     2    30     1    1
     3     1     2   ar
     4     2     3   ar
     5     3     4   ar
     6     4     5   ar
     7     5     6   ar
     8     6     7    1
     9     7     8    1
    10     8    14    1
    11    14    15   ar
    12    15    16   ar
    13    16    17   ar
    14    17    20    1
    15    20    21    1
    16    21    22    1
    17    22    23    1
    18    23    24    1
    19    24    25    1
    20    25    26    1
    21    26    27    1
    22    27    28    1
    23    17    18   ar
    24    18    19   ar
    25     8     9    1
    26     9    10    1
    27     9    11    1
    28    11    12    2
    29    11    13    2
    30     6     1   ar
    31    19    14   ar
    32    11     5    1
    33    28    24    1
@<TRIPOS>MOLECULE
*****
 30 33 0 0 0
SMALL
GASTEIGER

@<TRIPOS>ATOM
      1 C         141.2138  141.5680  168.7327 C.ar    1  UNL1        0.1737
      2 C         140.4880  141.6942  170.0393 C.ar    1  UNL1        0.0401
      3 C         139.2212  140.9250  170.2708 C.ar    1  UNL1        0.0046
      4 C         138.6802  140.0298  169.1958 C.ar    1  UNL1        0.0217
      5 C         139.4060  139.9037  167.8892 C.ar    1  UNL1        0.1426
      6 C         140.6728  140.6728  167.6576 C.ar    1  UNL1        0.1895
      7 O         141.3987  140.5467  166.3509 O.3     1  UNL1       -0.4686
      8 C         140.8577  139.6514  165.2759 C.3     1  UNL1        0.2104
      9 C         139.5908  138.8823  165.5074 C.3     1  UNL1        0.1779
     10 C         139.0499  137.9870  164.4323 C.3     1  UNL1        0.0300
     11 S         138.8650  139.0084  166.8140 S.O2    1  UNL1        0.0138
     12 O         137.8260  138.7982  167.8753 O.2     1  UNL1       -0.1685
     13 O         137.9632  138.0401  166.1075 O.2     1  UNL1       -0.1685
     14 C         141.5835  139.5253  163.9692 C.ar    1  UNL1        0.0191
     15 C         141.2084  140.4065  162.8148 C.ar    1  UNL1        0.0023
     16 C         141.9341  140.2804  161.5082 C.ar    1  UNL1        0.0367
     17 C         143.0350  139.2731  161.3559 C.ar    1  UNL1        0.1385
     18 C         143.4101  138.3918  162.5103 C.ar    1  UNL1        0.0367
     19 C         142.6843  138.5179  163.8170 C.ar    1  UNL1        0.0023
     20 O         143.7608  139.1469  160.0492 O.3     1  UNL1       -0.4754
     21 C         142.9954  138.8655  158.7903 C.3     1  UNL1        0.2068
     22 C         142.6554  137.4525  158.4192 C.3     1  UNL1        0.0646
     23 C         142.8981  136.9649  157.0216 C.3     1  UNL1        0.0759
     24 N         142.6970  135.5166  156.6870 N.3     1  UNL1       -0.2726
     25 C         141.7781  134.9746  155.6324 C.3     1  UNL1        0.0721
     26 C         141.8928  133.4791  155.6418 C.3     1  UNL1        0.0188
     27 C         142.8825  133.0966  156.7022 C.3     1  UNL1        0.0188
     28 C         143.3795  134.3560  157.3481 C.3     1  UNL1        0.0721
     29 C         143.5475  142.3601  169.5553 C.3     1  UNL1        0.2526
     30 O         142.4806  142.3372  168.5011 O.3     1  UNL1       -0.4683
@<TRIPOS>BOND
     1    29    30    1
     2    30     1    1
     3     1     2   ar
     4     2     3   ar
     5     3     4   ar
     6     4     5   ar
     7     5     6   ar
     8     6     7    1
     9     7     8    1
    10     8    14    1
    11    14    15   ar
    12    15    16   ar
    13    16    17   ar
    14    17    20    1
    15    20    21    1
    16    21    22    1
    17    22    23    1
    18    23    24    1
    19    24    25    1
    20    25    26    1
    21    26    27    1
    22    27    28    1
    23    17    18   ar
    24    18    19   ar
    25     8     9    1
    26     9    10    1
    27     9    11    1
    28    11    12    2
    29    11    13    2
    30     6     1   ar
    31    19    14   ar
    32    11     5    1
    33    28    24    1
