@<TRIPOS>MOLECULE
*****
 29 33 0 0 0
SMALL
GASTEIGER

@<TRIPOS>ATOM
      1 C         139.5017  140.4200  166.7225 C.ar    1  UNL1        0.0015
      2 C         139.5155  138.9692  166.3414 C.ar    1  UNL1        0.0031
      3 C         139.0639  138.5486  164.9743 C.ar    1  UNL1        0.0366
      4 C         138.5985  139.5786  163.9882 C.ar    1  UNL1        0.1362
      5 C         138.5847  141.0293  164.3692 C.ar    1  UNL1        0.0357
      6 C         139.0363  141.4501  165.7364 C.ar    1  UNL1        0.0007
      7 C         138.1193  142.0594  163.3831 C.3     1  UNL1        0.1582
      8 C         137.6829  143.1967  162.5079 C.3     1  UNL1        0.2351
      9 O         137.8333  144.4678  163.2902 O.2     1  UNL1       -0.4478
     10 C         138.3627  144.1160  164.6488 C.2     1  UNL1        0.2770
     11 N         138.6627  145.0828  165.7556 N.pl3   1  UNL1       -0.3133
     12 N         138.5395  142.6275  164.7063 N.2     1  UNL1       -0.2202
     13 C         137.6677  141.6387  162.0160 C.3     1  UNL1        0.1174
     14 C         137.7976  141.3513  162.2911 C.3     1  UNL1        0.1502
     15 O         137.6611  141.6534  162.0019 O.3     1  UNL1       -0.3532
     16 C         137.7976  141.3513  162.2911 C.3     1  UNL1        0.1502
     17 C         137.6815  140.1880  161.6350 C.3     1  UNL1        0.1727
     18 C         137.2299  139.7673  160.2678 C.3     1  UNL1        0.0475
     19 O         138.1469  139.1580  162.6211 O.3     1  UNL1       -0.4792
     20 H         138.5131  146.0466  165.6214 H       1  UNL1        0.1466
     21 H         139.0093  144.7537  166.6163 H       1  UNL1        0.1466
     22 C         141.5797  142.1816  169.6084 C.ar    1  UNL1        0.1578
     23 C         140.8565  141.6821  170.8239 C.ar    1  UNL1        0.1356
     24 N         139.6818  140.7618  170.6723 N.ar    1  UNL1       -0.2391
     25 C         139.2301  140.3411  169.3051 C.ar    1  UNL1        0.0991
     26 C         139.9533  140.8407  168.0896 C.ar    1  UNL1        0.0222
     27 C         141.1281  141.7610  168.2413 C.ar    1  UNL1        0.0401
     28 C         144.1381  142.5369  169.8890 C.3     1  UNL1        0.2525
     29 O         142.7545  143.1019  169.7600 O.3     1  UNL1       -0.4699
@<TRIPOS>BOND
     1    28    29    1
     2    29    22    1
     3    22    23   ar
     4    23    24   ar
     5    24    25   ar
     6    25    26   ar
     7    26     1    1
     8     1     2   ar
     9     2     3   ar
    10     3     4   ar
    11     4     5   ar
    12     5     6   ar
    13     5     7    1
    14     7     8    1
    15     8     9    1
    16     9    10    1
    17    10    11    1
    18    10    12    2
    19     7    13    1
    20    13    14    1
    21    14    15    1
    22    15    16    1
    23    13    17    1
    24    17    18    1
    25    17    19    1
    26    26    27   ar
    27    27    22   ar
    28     6     1   ar
    29    12     7    1
    30    16    13    1
    31    19     4    1
    32    11    20    1
    33    11    21    1
@<TRIPOS>MOLECULE
*****
 29 33 0 0 0
SMALL
GASTEIGER

@<TRIPOS>ATOM
      1 C         141.9985  140.5913  165.8861 C.ar    1  UNL1        0.0015
      2 C         140.8675  139.8026  165.2955 C.ar    1  UNL1        0.0031
      3 C         139.6873  139.4330  166.1443 C.ar    1  UNL1        0.0366
      4 C         139.6381  139.8521  167.5837 C.ar    1  UNL1        0.1362
      5 C         140.7690  140.6408  168.1743 C.ar    1  UNL1        0.0357
      6 C         141.9493  141.0104  167.3255 C.ar    1  UNL1        0.0007
      7 C         140.7198  141.0599  169.6137 C.3     1  UNL1        0.1582
      8 C         140.8103  141.5466  171.0297 C.3     1  UNL1        0.2351
      9 O         142.1053  142.2880  171.1832 O.2     1  UNL1       -0.4478
     10 C         142.8151  142.2594  169.8621 C.2     1  UNL1        0.2770
     11 N         144.1473  142.8807  169.5634 N.pl3   1  UNL1       -0.3133
     12 N         141.9589  141.5004  168.8921 N.2     1  UNL1       -0.2202
     13 C         139.5396  140.6903  170.4625 C.3     1  UNL1        0.1174
     14 C         139.5533  140.5734  170.0609 C.3     1  UNL1        0.1502
     15 O         139.5389  140.6963  170.4831 O.3     1  UNL1       -0.3532
     16 C         139.5533  140.5734  170.0609 C.3     1  UNL1        0.1502
     17 C         138.4086  139.9016  169.8719 C.3     1  UNL1        0.1727
     18 C         137.2284  139.5319  170.7207 C.3     1  UNL1        0.0475
     19 O         138.4579  139.4825  168.4325 O.3     1  UNL1       -0.4792
     20 H         144.6359  143.3612  170.2702 H       1  UNL1        0.1466
     21 H         144.5330  142.8079  168.6605 H       1  UNL1        0.1466
     22 C         144.4333  142.6897  163.5583 C.ar    1  UNL1        0.1578
     23 C         145.5391  141.7002  163.3396 C.ar    1  UNL1        0.1356
     24 N         145.4648  140.3410  163.9697 N.ar    1  UNL1       -0.2391
     25 C         144.2846  139.9713  164.8186 C.ar    1  UNL1        0.0991
     26 C         143.1787  140.9609  165.0373 C.ar    1  UNL1        0.0222
     27 C         143.2531  142.3201  164.4071 C.ar    1  UNL1        0.0401
     28 C         143.5884  145.1408  163.3896 C.3     1  UNL1        0.2525
     29 O         144.5076  144.0489  162.9282 O.3     1  UNL1       -0.4699
@<TRIPOS>BOND
     1    28    29    1
     2    29    22    1
     3    22    23   ar
     4    23    24   ar
     5    24    25   ar
     6    25    26   ar
     7    26     1    1
     8     1     2   ar
     9     2     3   ar
    10     3     4   ar
    11     4     5   ar
    12     5     6   ar
    13     5     7    1
    14     7     8    1
    15     8     9    1
    16     9    10    1
    17    10    11    1
    18    10    12    2
    19     7    13    1
    20    13    14    1
    21    14    15    1
    22    15    16    1
    23    13    17    1
    24    17    18    1
    25    17    19    1
    26    26    27   ar
    27    27    22   ar
    28     6     1   ar
    29    12     7    1
    30    16    13    1
    31    19     4    1
    32    11    20    1
    33    11    21    1
@<TRIPOS>MOLECULE
*****
 29 33 0 0 0
SMALL
GASTEIGER

@<TRIPOS>ATOM
      1 C         141.3838  141.8564  165.8271 C.ar    1  UNL1        0.0015
      2 C         142.0055  140.6707  165.1503 C.ar    1  UNL1        0.0031
      3 C         142.5684  139.5485  165.9711 C.ar    1  UNL1        0.0366
      4 C         142.5095  139.6118  167.4686 C.ar    1  UNL1        0.1362
      5 C         141.8879  140.7973  168.1454 C.ar    1  UNL1        0.0357
      6 C         141.3250  141.9196  167.3246 C.ar    1  UNL1        0.0007
      7 C         141.8291  140.8606  169.6429 C.3     1  UNL1        0.1582
      8 C         141.6991  141.0628  171.1235 C.3     1  UNL1        0.2351
      9 O         141.0179  142.3794  171.3535 O.2     1  UNL1       -0.4478
     10 C         140.7269  142.9908  170.0151 C.2     1  UNL1        0.2770
     11 N         140.0530  144.3092  169.7759 N.pl3   1  UNL1       -0.3133
     12 N         141.2282  142.0522  168.9578 N.2     1  UNL1       -0.2202
     13 C         142.3919  139.7383  170.4636 C.3     1  UNL1        0.1174
     14 C         142.4083  139.7207  170.0458 C.3     1  UNL1        0.1502
     15 O         142.3911  139.7392  170.4850 O.3     1  UNL1       -0.3532
     16 C         142.4083  139.7207  170.0458 C.3     1  UNL1        0.1502
     17 C         143.0136  138.5528  169.7869 C.3     1  UNL1        0.1727
     18 C         143.5764  137.4304  170.6077 C.3     1  UNL1        0.0475
     19 O         143.0724  138.4895  168.2894 O.3     1  UNL1       -0.4792
     20 H         139.7579  144.8569  170.5389 H       1  UNL1        0.1466
     21 H         139.9057  144.6270  168.8558 H       1  UNL1        0.1466
     22 C         140.8708  144.4404  162.8590 C.ar    1  UNL1        0.1578
     23 C         139.6953  145.2232  163.3647 C.ar    1  UNL1        0.1356
     24 N         139.0827  144.8837  164.6911 N.ar    1  UNL1       -0.2391
     25 C         139.6456  143.7614  165.5119 C.ar    1  UNL1        0.0991
     26 C         140.8210  142.9786  165.0063 C.ar    1  UNL1        0.0222
     27 C         141.4336  143.3182  163.6798 C.ar    1  UNL1        0.0401
     28 C         140.6383  145.3784  160.4473 C.3     1  UNL1        0.2525
     29 O         141.4834  144.7799  161.5326 O.3     1  UNL1       -0.4699
@<TRIPOS>BOND
     1    28    29    1
     2    29    22    1
     3    22    23   ar
     4    23    24   ar
     5    24    25   ar
     6    25    26   ar
     7    26     1    1
     8     1     2   ar
     9     2     3   ar
    10     3     4   ar
    11     4     5   ar
    12     5     6   ar
    13     5     7    1
    14     7     8    1
    15     8     9    1
    16     9    10    1
    17    10    11    1
    18    10    12    2
    19     7    13    1
    20    13    14    1
    21    14    15    1
    22    15    16    1
    23    13    17    1
    24    17    18    1
    25    17    19    1
    26    26    27   ar
    27    27    22   ar
    28     6     1   ar
    29    12     7    1
    30    16    13    1
    31    19     4    1
    32    11    20    1
    33    11    21    1
@<TRIPOS>MOLECULE
*****
 29 33 0 0 0
SMALL
GASTEIGER

@<TRIPOS>ATOM
      1 C         140.6904  143.1518  164.8508 C.ar    1  UNL1        0.0015
      2 C         140.0237  143.5925  166.1203 C.ar    1  UNL1        0.0031
      3 C         140.2432  142.8229  167.3889 C.ar    1  UNL1        0.0366
      4 C         141.1293  141.6126  167.3883 C.ar    1  UNL1        0.1362
      5 C         141.7959  141.1719  166.1189 C.ar    1  UNL1        0.0357
      6 C         141.5765  141.9415  164.8502 C.ar    1  UNL1        0.0007
      7 C         142.6821  139.9616  166.1182 C.3     1  UNL1        0.1582
      8 C         143.5903  138.7778  165.9644 C.3     1  UNL1        0.2351
      9 O         144.0272  138.7119  164.5308 O.2     1  UNL1       -0.4478
     10 C         143.3889  139.8549  163.7988 C.2     1  UNL1        0.2770
     11 N         143.5531  140.1703  162.3416 N.pl3   1  UNL1       -0.3133
     12 N         142.5576  140.6274  164.7798 N.2     1  UNL1       -0.2202
     13 C         142.9015  139.1921  167.3869 C.3     1  UNL1        0.1174
     14 C         142.6543  139.5297  167.3871 C.3     1  UNL1        0.1502
     15 O         142.9141  139.1748  167.3869 O.3     1  UNL1       -0.3532
     16 C         142.6543  139.5297  167.3871 C.3     1  UNL1        0.1502
     17 C         142.2348  139.6328  168.6562 C.3     1  UNL1        0.1727
     18 C         142.4542  138.8632  169.9250 C.3     1  UNL1        0.0475
     19 O         141.3487  140.8431  168.6569 O.3     1  UNL1       -0.4792
     20 H         144.1232  139.6009  161.7759 H       1  UNL1        0.1466
     21 H         143.0907  140.9467  161.9508 H       1  UNL1        0.1466
     22 C         141.2936  144.6715  161.2347 C.ar    1  UNL1        0.1578
     23 C         140.0321  145.4606  161.0448 C.ar    1  UNL1        0.1356
     24 N         138.9901  145.4800  162.1235 N.ar    1  UNL1       -0.2391
     25 C         139.2095  144.7104  163.3922 C.ar    1  UNL1        0.0991
     26 C         140.4710  143.9214  163.5822 C.ar    1  UNL1        0.0222
     27 C         141.5131  143.9020  162.5034 C.ar    1  UNL1        0.0401
     28 C         142.6628  143.3684  159.4522 C.3     1  UNL1        0.2525
     29 O         142.3357  144.6521  160.1560 O.3     1  UNL1       -0.4699
@<TRIPOS>BOND
     1    28    29    1
     2    29    22    1
     3    22    23   ar
     4    23    24   ar
     5    24    25   ar
     6    25    26   ar
     7    26     1    1
     8     1     2   ar
     9     2     3   ar
    10     3     4   ar
    11     4     5   ar
    12     5     6   ar
    13     5     7    1
    14     7     8    1
    15     8     9    1
    16     9    10    1
    17    10    11    1
    18    10    12    2
    19     7    13    1
    20    13    14    1
    21    14    15    1
    22    15    16    1
    23    13    17    1
    24    17    18    1
    25    17    19    1
    26    26    27   ar
    27    27    22   ar
    28     6     1   ar
    29    12     7    1
    30    16    13    1
    31    19     4    1
    32    11    20    1
    33    11    21    1
@<TRIPOS>MOLECULE
*****
 29 33 0 0 0
SMALL
GASTEIGER

@<TRIPOS>ATOM
      1 C         141.0879  142.7963  166.1656 C.ar    1  UNL1        0.0015
      2 C         139.7467  143.4592  166.0569 C.ar    1  UNL1        0.0031
      3 C         139.3585  144.1633  164.7906 C.ar    1  UNL1        0.0366
      4 C         140.3116  144.2045  163.6330 C.ar    1  UNL1        0.1362
      5 C         141.6527  143.5416  163.7417 C.ar    1  UNL1        0.0357
      6 C         142.0409  142.8374  165.0080 C.ar    1  UNL1        0.0007
      7 C         142.6057  143.5827  162.5841 C.3     1  UNL1        0.1582
      8 C         143.6579  143.5412  161.5158 C.3     1  UNL1        0.2351
      9 O         144.8327  142.7777  162.0516 O.2     1  UNL1       -0.4478
     10 C         144.5066  142.3474  163.4511 C.2     1  UNL1        0.2770
     11 N         145.3998  141.5582  164.3616 N.pl3   1  UNL1       -0.3133
     12 N         143.1302  142.8449  163.7802 N.2     1  UNL1       -0.2202
     13 C         142.2176  144.2868  161.3178 C.3     1  UNL1        0.1174
     14 C         141.9517  144.2753  161.6407 C.3     1  UNL1        0.1502
     15 O         142.2312  144.2874  161.3012 O.3     1  UNL1       -0.3532
     16 C         141.9517  144.2753  161.6407 C.3     1  UNL1        0.1502
     17 C         140.8765  144.9497  161.2091 C.3     1  UNL1        0.1727
     18 C         140.4883  145.6539  159.9427 C.3     1  UNL1        0.0475
     19 O         139.9234  144.9086  162.3667 O.3     1  UNL1       -0.4792
     20 H         146.2911  141.2756  164.0532 H       1  UNL1        0.1466
     21 H         145.0949  141.3228  165.2676 H       1  UNL1        0.1466
     22 C         140.8465  140.5830  169.4509 C.ar    1  UNL1        0.1578
     23 C         142.2522  140.6839  169.9646 C.ar    1  UNL1        0.1356
     24 N         143.2697  141.4890  169.2121 N.ar    1  UNL1       -0.2391
     25 C         142.8816  142.1932  167.9457 C.ar    1  UNL1        0.0991
     26 C         141.4760  142.0922  167.4320 C.ar    1  UNL1        0.0222
     27 C         140.4584  141.2870  168.1846 C.ar    1  UNL1        0.0401
     28 C         138.3701  140.1012  170.0717 C.3     1  UNL1        0.2525
     29 O         139.8290  139.7779  170.2035 O.3     1  UNL1       -0.4699
@<TRIPOS>BOND
     1    28    29    1
     2    29    22    1
     3    22    23   ar
     4    23    24   ar
     5    24    25   ar
     6    25    26   ar
     7    26     1    1
     8     1     2   ar
     9     2     3   ar
    10     3     4   ar
    11     4     5   ar
    12     5     6   ar
    13     5     7    1
    14     7     8    1
    15     8     9    1
    16     9    10    1
    17    10    11    1
    18    10    12    2
    19     7    13    1
    20    13    14    1
    21    14    15    1
    22    15    16    1
    23    13    17    1
    24    17    18    1
    25    17    19    1
    26    26    27   ar
    27    27    22   ar
    28     6     1   ar
    29    12     7    1
    30    16    13    1
    31    19     4    1
    32    11    20    1
    33    11    21    1
@<TRIPOS>MOLECULE
*****
 29 33 0 0 0
SMALL
GASTEIGER

@<TRIPOS>ATOM
      1 C         142.1072  142.3509  165.4150 C.ar    1  UNL1        0.0015
      2 C         143.2710  143.1867  164.9710 C.ar    1  UNL1        0.0031
      3 C         143.1910  143.9639  163.6906 C.ar    1  UNL1        0.0366
      4 C         141.9472  143.9052  162.8541 C.ar    1  UNL1        0.1362
      5 C         140.7835  143.0695  163.2981 C.ar    1  UNL1        0.0357
      6 C         140.8635  142.2922  164.5786 C.ar    1  UNL1        0.0007
      7 C         139.5398  143.0108  162.4616 C.3     1  UNL1        0.1582
      8 C         138.2374  142.8552  161.7338 C.3     1  UNL1        0.2351
      9 O         137.3667  141.9321  162.5338 O.2     1  UNL1       -0.4478
     10 C         138.1310  141.5172  163.7560 C.2     1  UNL1        0.2770
     11 N         137.6387  140.5972  164.8335 N.pl3   1  UNL1       -0.3133
     12 N         139.4740  142.1839  163.7114 N.2     1  UNL1       -0.2202
     13 C         139.4598  143.7880  161.1812 C.3     1  UNL1        0.1174
     14 C         139.8068  143.8043  161.4145 C.3     1  UNL1        0.1502
     15 O         139.4420  143.7872  161.1692 O.3     1  UNL1       -0.3532
     16 C         139.8068  143.8043  161.4145 C.3     1  UNL1        0.1502
     17 C         140.6235  144.6238  160.7372 C.3     1  UNL1        0.1727
     18 C         140.5435  145.4010  159.4567 C.3     1  UNL1        0.0475
     19 O         141.8672  144.6824  161.5736 O.3     1  UNL1       -0.4792
     20 H         136.7369  140.2068  164.7735 H       1  UNL1        0.1466
     21 H         138.2174  140.3838  165.6008 H       1  UNL1        0.1466
     22 C         141.7022  141.3735  169.2401 C.ar    1  UNL1        0.1578
     23 C         142.3472  140.0194  169.2565 C.ar    1  UNL1        0.1356
     24 N         142.9122  139.4424  167.9924 N.ar    1  UNL1       -0.2391
     25 C         142.8322  140.2196  166.7119 C.ar    1  UNL1        0.0991
     26 C         142.1872  141.5737  166.6955 C.ar    1  UNL1        0.0222
     27 C         141.6222  142.1507  167.9596 C.ar    1  UNL1        0.0401
     28 C         139.9523  142.8685  170.4455 C.3     1  UNL1        0.2525
     29 O         141.1372  141.9505  170.5041 O.3     1  UNL1       -0.4699
@<TRIPOS>BOND
     1    28    29    1
     2    29    22    1
     3    22    23   ar
     4    23    24   ar
     5    24    25   ar
     6    25    26   ar
     7    26     1    1
     8     1     2   ar
     9     2     3   ar
    10     3     4   ar
    11     4     5   ar
    12     5     6   ar
    13     5     7    1
    14     7     8    1
    15     8     9    1
    16     9    10    1
    17    10    11    1
    18    10    12    2
    19     7    13    1
    20    13    14    1
    21    14    15    1
    22    15    16    1
    23    13    17    1
    24    17    18    1
    25    17    19    1
    26    26    27   ar
    27    27    22   ar
    28     6     1   ar
    29    12     7    1
    30    16    13    1
    31    19     4    1
    32    11    20    1
    33    11    21    1
@<TRIPOS>MOLECULE
*****
 29 33 0 0 0
SMALL
GASTEIGER

@<TRIPOS>ATOM
      1 C         139.4117  139.3625  165.0350 C.ar    1  UNL1        0.0015
      2 C         138.3489  138.8769  165.9756 C.ar    1  UNL1        0.0031
      3 C         138.4012  139.2553  167.4262 C.ar    1  UNL1        0.0366
      4 C         139.5162  140.1193  167.9361 C.ar    1  UNL1        0.1362
      5 C         140.5790  140.6050  166.9956 C.ar    1  UNL1        0.0357
      6 C         140.5267  140.2266  165.5450 C.ar    1  UNL1        0.0007
      7 C         141.6940  141.4691  167.5056 C.3     1  UNL1        0.1582
      8 C         142.8639  142.3349  167.8685 C.3     1  UNL1        0.2351
      9 O         143.6665  142.5752  166.6242 O.2     1  UNL1       -0.4478
     10 C         142.9926  141.8578  165.4922 C.2     1  UNL1        0.2770
     11 N         143.4562  141.8291  164.0661 N.pl3   1  UNL1       -0.3133
     12 N         141.7735  141.1742  166.0370 N.2     1  UNL1       -0.2202
     13 C         141.7463  141.8475  168.9561 C.3     1  UNL1        0.1174
     14 C         141.4352  141.6064  168.8138 C.3     1  UNL1        0.1502
     15 O         141.7622  141.8598  168.9634 O.3     1  UNL1       -0.3532
     16 C         141.4352  141.6064  168.8138 C.3     1  UNL1        0.1502
     17 C         140.6835  141.3618  169.8966 C.3     1  UNL1        0.1727
     18 C         140.7358  141.7402  171.3473 C.3     1  UNL1        0.0475
     19 O         139.5685  140.4977  169.3867 O.3     1  UNL1       -0.4792
     20 H         144.2733  142.3118  163.8043 H       1  UNL1        0.1466
     21 H         142.9434  141.3275  163.3918 H       1  UNL1        0.1466
     22 C         138.3574  139.3080  161.2094 C.ar    1  UNL1        0.1578
     23 C         139.2549  138.2273  160.6834 C.ar    1  UNL1        0.1356
     24 N         140.2046  137.5250  161.6079 N.ar    1  UNL1       -0.2391
     25 C         140.2569  137.9034  163.0585 C.ar    1  UNL1        0.0991
     26 C         139.3594  138.9841  163.5845 C.ar    1  UNL1        0.0222
     27 C         138.4097  139.6864  162.6599 C.ar    1  UNL1        0.0401
     28 C         137.8600  140.4200  158.9146 C.3     1  UNL1        0.2525
     29 O         137.4077  140.0103  160.2849 O.3     1  UNL1       -0.4699
@<TRIPOS>BOND
     1    28    29    1
     2    29    22    1
     3    22    23   ar
     4    23    24   ar
     5    24    25   ar
     6    25    26   ar
     7    26     1    1
     8     1     2   ar
     9     2     3   ar
    10     3     4   ar
    11     4     5   ar
    12     5     6   ar
    13     5     7    1
    14     7     8    1
    15     8     9    1
    16     9    10    1
    17    10    11    1
    18    10    12    2
    19     7    13    1
    20    13    14    1
    21    14    15    1
    22    15    16    1
    23    13    17    1
    24    17    18    1
    25    17    19    1
    26    26    27   ar
    27    27    22   ar
    28     6     1   ar
    29    12     7    1
    30    16    13    1
    31    19     4    1
    32    11    20    1
    33    11    21    1
@<TRIPOS>MOLECULE
*****
 29 33 0 0 0
SMALL
GASTEIGER

@<TRIPOS>ATOM
      1 C         139.5171  139.7756  165.5336 C.ar    1  UNL1        0.0015
      2 C         139.9854  138.4123  165.1186 C.ar    1  UNL1        0.0031
      3 C         140.0145  138.0392  163.6661 C.ar    1  UNL1        0.0366
      4 C         139.5754  139.0293  162.6284 C.ar    1  UNL1        0.1362
      5 C         139.1071  140.3926  163.0433 C.ar    1  UNL1        0.0357
      6 C         139.0779  140.7658  164.4959 C.ar    1  UNL1        0.0007
      7 C         138.6679  141.3827  162.0056 C.3     1  UNL1        0.1582
      8 C         138.2011  142.4723  161.0863 C.3     1  UNL1        0.2351
      9 O         137.8289  143.6588  161.9252 O.2     1  UNL1       -0.4478
     10 C         138.0656  143.3026  163.3629 C.2     1  UNL1        0.2770
     11 N         137.8259  144.1961  164.5436 N.pl3   1  UNL1       -0.3133
     12 N         138.5842  141.8959  163.4127 N.2     1  UNL1       -0.2202
     13 C         138.6970  141.0096  160.5531 C.3     1  UNL1        0.1174
     14 C         138.8196  140.7334  160.8426 C.3     1  UNL1        0.1502
     15 O         138.6908  141.0237  160.5383 O.3     1  UNL1       -0.3532
     16 C         138.8196  140.7334  160.8426 C.3     1  UNL1        0.1502
     17 C         139.1653  139.6463  160.1383 C.3     1  UNL1        0.1727
     18 C         139.1945  139.2732  158.6857 C.3     1  UNL1        0.0475
     19 O         139.6045  138.6562  161.1759 O.3     1  UNL1       -0.4792
     20 H         137.4819  145.1086  164.4086 H       1  UNL1        0.1466
     21 H         138.0125  143.8701  165.4536 H       1  UNL1        0.1466
     22 C         140.2929  141.6650  168.9362 C.ar    1  UNL1        0.1578
     23 C         139.4297  140.8951  169.8912 C.ar    1  UNL1        0.1356
     24 N         138.5956  139.7520  169.3937 N.ar    1  UNL1       -0.2391
     25 C         138.6247  139.3788  167.9411 C.ar    1  UNL1        0.0991
     26 C         139.4880  140.1488  166.9861 C.ar    1  UNL1        0.0222
     27 C         140.3221  141.2919  167.4837 C.ar    1  UNL1        0.0401
     28 C         140.4646  144.0525  169.9465 C.3     1  UNL1        0.2525
     29 O         141.1270  142.8081  169.4338 O.3     1  UNL1       -0.4699
@<TRIPOS>BOND
     1    28    29    1
     2    29    22    1
     3    22    23   ar
     4    23    24   ar
     5    24    25   ar
     6    25    26   ar
     7    26     1    1
     8     1     2   ar
     9     2     3   ar
    10     3     4   ar
    11     4     5   ar
    12     5     6   ar
    13     5     7    1
    14     7     8    1
    15     8     9    1
    16     9    10    1
    17    10    11    1
    18    10    12    2
    19     7    13    1
    20    13    14    1
    21    14    15    1
    22    15    16    1
    23    13    17    1
    24    17    18    1
    25    17    19    1
    26    26    27   ar
    27    27    22   ar
    28     6     1   ar
    29    12     7    1
    30    16    13    1
    31    19     4    1
    32    11    20    1
    33    11    21    1
@<TRIPOS>MOLECULE
*****
 29 33 0 0 0
SMALL
GASTEIGER

@<TRIPOS>ATOM
      1 C         139.0443  142.5665  162.0645 C.ar    1  UNL1        0.0015
      2 C         138.1995  143.1750  163.1444 C.ar    1  UNL1        0.0031
      3 C         137.7774  142.3477  164.3222 C.ar    1  UNL1        0.0366
      4 C         138.2000  140.9118  164.4202 C.ar    1  UNL1        0.1362
      5 C         139.0447  140.3033  163.3404 C.ar    1  UNL1        0.0357
      6 C         139.4669  141.1306  162.1625 C.ar    1  UNL1        0.0007
      7 C         139.4673  138.8674  163.4384 C.3     1  UNL1        0.1582
      8 C         139.9641  137.4525  163.3996 C.3     1  UNL1        0.2351
      9 O         140.7675  137.2775  162.1449 O.2     1  UNL1       -0.4478
     10 C         140.7672  138.5841  161.4083 C.2     1  UNL1        0.2770
     11 N         141.4505  138.8599  160.1018 N.pl3   1  UNL1       -0.3133
     12 N         139.9637  139.5668  162.2077 N.2     1  UNL1       -0.2202
     13 C         139.0452  138.0400  164.6162 C.3     1  UNL1        0.1174
     14 C         138.9273  138.4406  164.5889 C.3     1  UNL1        0.1502
     15 O         139.0512  138.0195  164.6176 O.3     1  UNL1       -0.3532
     16 C         138.9273  138.4406  164.5889 C.3     1  UNL1        0.1502
     17 C         138.2005  138.6486  165.6960 C.3     1  UNL1        0.1727
     18 C         137.7783  137.8212  166.8739 C.3     1  UNL1        0.0475
     19 O         137.7779  140.0845  165.5980 O.3     1  UNL1       -0.4792
     20 H         141.9570  138.1462  159.6510 H       1  UNL1        0.1466
     21 H         141.3923  139.7545  159.6951 H       1  UNL1        0.1466
     22 C         139.6699  143.7094  158.3159 C.ar    1  UNL1        0.1578
     23 C         140.3107  145.0485  158.5310 C.ar    1  UNL1        0.1356
     24 N         140.5293  145.5603  159.9239 N.ar    1  UNL1       -0.2391
     25 C         140.1072  144.7329  161.1018 C.ar    1  UNL1        0.0991
     26 C         139.4664  143.3938  160.8867 C.ar    1  UNL1        0.0222
     27 C         139.2478  142.8821  159.4937 C.ar    1  UNL1        0.0401
     28 C         138.1218  143.3865  156.2546 C.3     1  UNL1        0.2525
     29 O         139.4513  143.1976  156.9230 O.3     1  UNL1       -0.4699
@<TRIPOS>BOND
     1    28    29    1
     2    29    22    1
     3    22    23   ar
     4    23    24   ar
     5    24    25   ar
     6    25    26   ar
     7    26     1    1
     8     1     2   ar
     9     2     3   ar
    10     3     4   ar
    11     4     5   ar
    12     5     6   ar
    13     5     7    1
    14     7     8    1
    15     8     9    1
    16     9    10    1
    17    10    11    1
    18    10    12    2
    19     7    13    1
    20    13    14    1
    21    14    15    1
    22    15    16    1
    23    13    17    1
    24    17    18    1
    25    17    19    1
    26    26    27   ar
    27    27    22   ar
    28     6     1   ar
    29    12     7    1
    30    16    13    1
    31    19     4    1
    32    11    20    1
    33    11    21    1
