@<TRIPOS>MOLECULE
*****
 32 35 0 0 0
SMALL
GASTEIGER

@<TRIPOS>ATOM
      1 N         143.9400  144.1993  162.3013 N.3     1  UNL1       -0.2932
      2 H         144.4888  144.9890  161.9614 H       1  UNL1        0.1234
      3 C         144.6032  142.9569  161.7851 C.3     1  UNL1        0.1020
      4 O         146.5176  141.8041  163.1102 O.3     1  UNL1       -0.3794
      5 C         145.0662  141.9003  162.7438 C.3     1  UNL1        0.1659
      6 H         147.0153  142.4934  162.6433 H       1  UNL1        0.2106
      7 C         144.0779  140.9398  163.3361 C.3     1  UNL1        0.1941
      8 C         144.5082  139.9917  164.4159 C.3     1  UNL1        0.0509
      9 C         143.5200  139.0312  165.0082 C.3     1  UNL1        0.0333
     10 C         142.1015  139.0188  164.5207 C.ar    1  UNL1        0.0141
     11 C         141.1132  138.0583  165.1130 C.ar    1  UNL1        0.0284
     12 C         139.6947  138.0459  164.6254 C.ar    1  UNL1        0.1400
     13 F         138.7064  137.0854  165.2178 F       1  UNL1       -0.2042
     14 C         139.2644  138.9940  163.5456 C.ar    1  UNL1        0.0327
     15 C         140.2527  139.9545  162.9533 C.ar    1  UNL1        0.0389
     16 C         141.6712  139.9669  163.4408 C.ar    1  UNL1        0.1346
     17 O         142.6594  140.9274  162.8485 O.3     1  UNL1       -0.4769
     18 C         142.5089  144.4851  161.9542 C.3     1  UNL1        0.1020
     19 C         141.5411  144.8815  163.0294 C.3     1  UNL1        0.1659
     20 O         140.9309  146.2517  163.0214 O.3     1  UNL1       -0.3794
     21 H         140.3328  146.3438  163.7795 H       1  UNL1        0.2106
     22 C         141.1835  143.9076  164.1129 C.3     1  UNL1        0.1941
     23 C         139.7685  143.4311  164.2559 C.3     1  UNL1        0.0509
     24 C         139.4110  142.4572  165.3393 C.3     1  UNL1        0.0333
     25 C         140.4685  141.9599  166.2796 C.ar    1  UNL1        0.0141
     26 C         140.1110  140.9860  167.3631 C.ar    1  UNL1        0.0284
     27 C         141.1685  140.4887  168.3034 C.ar    1  UNL1        0.1400
     28 F         140.8110  139.5148  169.3868 F       1  UNL1       -0.2042
     29 C         142.5836  140.9652  168.1603 C.ar    1  UNL1        0.0327
     30 C         142.9411  141.9391  167.0770 C.ar    1  UNL1        0.0389
     31 C         141.8836  142.4364  166.1366 C.ar    1  UNL1        0.1346
     32 O         142.2411  143.4103  165.0532 O.3     1  UNL1       -0.4769
@<TRIPOS>BOND
     1     4     5    1
     2     5     3    1
     3     3     1    1
     4     1    18    1
     5    18    19    1
     6    19    20    1
     7    19    22    1
     8    22    23    1
     9    23    24    1
    10    24    25    1
    11    25    26   ar
    12    26    27   ar
    13    27    28    1
    14    27    29   ar
    15    29    30   ar
    16    30    31   ar
    17    31    32    1
    18     5     7    1
    19     7     8    1
    20     8     9    1
    21     9    10    1
    22    10    11   ar
    23    11    12   ar
    24    12    13    1
    25    12    14   ar
    26    14    15   ar
    27    15    16   ar
    28    16    17    1
    29    32    22    1
    30    17     7    1
    31    31    25   ar
    32    16    10   ar
    33     4     6    1
    34     1     2    1
    35    20    21    1
@<TRIPOS>MOLECULE
*****
 32 35 0 0 0
SMALL
GASTEIGER

@<TRIPOS>ATOM
      1 N         138.9742  143.4022  161.1037 N.3     1  UNL1       -0.2932
      2 H         138.5826  143.1766  160.1893 H       1  UNL1        0.1234
      3 C         137.8375  143.3688  162.0818 C.3     1  UNL1        0.1020
      4 O         136.7065  141.2200  163.0054 O.3     1  UNL1       -0.3794
      5 C         137.7642  142.2785  163.1093 C.3     1  UNL1        0.1659
      6 H         136.1578  141.3868  162.2231 H       1  UNL1        0.2106
      7 C         138.7485  142.2467  164.2408 C.3     1  UNL1        0.1941
      8 C         139.0067  143.4861  165.0453 C.3     1  UNL1        0.0509
      9 C         139.9910  143.4544  166.1767 C.3     1  UNL1        0.0333
     10 C         140.7171  142.1833  166.5036 C.ar    1  UNL1        0.0141
     11 C         141.7015  142.1515  167.6350 C.ar    1  UNL1        0.0284
     12 C         142.4276  140.8804  167.9619 C.ar    1  UNL1        0.1400
     13 F         143.4120  140.8486  169.0934 F       1  UNL1       -0.2042
     14 C         142.1695  139.6410  167.1574 C.ar    1  UNL1        0.0327
     15 C         141.1852  139.6727  166.0260 C.ar    1  UNL1        0.0389
     16 C         140.4590  140.9439  165.6990 C.ar    1  UNL1        0.1346
     17 O         139.4747  140.9756  164.5676 O.3     1  UNL1       -0.4769
     18 C         139.7796  144.6561  160.9323 C.3     1  UNL1        0.1020
     19 C         140.6597  145.1402  162.0463 C.3     1  UNL1        0.1659
     20 O         140.5814  146.5687  162.4972 O.3     1  UNL1       -0.3794
     21 H         141.2117  146.7146  163.2200 H       1  UNL1        0.2106
     22 C         141.6182  144.1959  162.7094 C.3     1  UNL1        0.1941
     23 C         142.5322  144.6915  163.7906 C.3     1  UNL1        0.0509
     24 C         143.4906  143.7472  164.4536 C.3     1  UNL1        0.0333
     25 C         143.5350  142.3073  164.0355 C.ar    1  UNL1        0.0141
     26 C         144.4935  141.3630  164.6987 C.ar    1  UNL1        0.0284
     27 C         144.5379  139.9231  164.2806 C.ar    1  UNL1        0.1400
     28 F         145.4963  138.9788  164.9436 F       1  UNL1       -0.2042
     29 C         143.6237  139.4275  163.1994 C.ar    1  UNL1        0.0327
     30 C         142.6653  140.3719  162.5363 C.ar    1  UNL1        0.0389
     31 C         142.6210  141.8117  162.9544 C.ar    1  UNL1        0.1346
     32 O         141.6626  142.7560  162.2913 O.3     1  UNL1       -0.4769
@<TRIPOS>BOND
     1     4     5    1
     2     5     3    1
     3     3     1    1
     4     1    18    1
     5    18    19    1
     6    19    20    1
     7    19    22    1
     8    22    23    1
     9    23    24    1
    10    24    25    1
    11    25    26   ar
    12    26    27   ar
    13    27    28    1
    14    27    29   ar
    15    29    30   ar
    16    30    31   ar
    17    31    32    1
    18     5     7    1
    19     7     8    1
    20     8     9    1
    21     9    10    1
    22    10    11   ar
    23    11    12   ar
    24    12    13    1
    25    12    14   ar
    26    14    15   ar
    27    15    16   ar
    28    16    17    1
    29    32    22    1
    30    17     7    1
    31    31    25   ar
    32    16    10   ar
    33     4     6    1
    34     1     2    1
    35    20    21    1
@<TRIPOS>MOLECULE
*****
 32 35 0 0 0
SMALL
GASTEIGER

@<TRIPOS>ATOM
      1 N         140.2484  145.2693  163.7506 N.3     1  UNL1       -0.2932
      2 H         140.1344  146.0618  164.3826 H       1  UNL1        0.1234
      3 C         141.4428  145.5673  162.8935 C.3     1  UNL1        0.1020
      4 O         144.0190  145.3265  162.6590 O.3     1  UNL1       -0.3794
      5 C         142.6880  144.7422  163.0295 C.3     1  UNL1        0.1659
      6 H         143.8977  146.2389  162.3530 H       1  UNL1        0.2106
      7 C         142.6024  143.3329  163.5359 C.3     1  UNL1        0.1941
      8 C         143.2997  142.9491  164.8073 C.3     1  UNL1        0.0509
      9 C         143.2141  141.5398  165.3138 C.3     1  UNL1        0.0333
     10 C         142.4312  140.5143  164.5488 C.ar    1  UNL1        0.0141
     11 C         142.3456  139.1049  165.0552 C.ar    1  UNL1        0.0284
     12 C         141.5626  138.0794  164.2903 C.ar    1  UNL1        0.1400
     13 F         141.4770  136.6700  164.7967 F       1  UNL1       -0.2042
     14 C         140.8653  138.4631  163.0189 C.ar    1  UNL1        0.0327
     15 C         140.9509  139.8724  162.5124 C.ar    1  UNL1        0.0389
     16 C         141.7339  140.8980  163.2774 C.ar    1  UNL1        0.1346
     17 O         141.8195  142.3073  162.7709 O.3     1  UNL1       -0.4769
     18 C         138.9114  145.0260  163.1156 C.3     1  UNL1        0.1020
     19 C         138.3218  143.6468  163.1138 C.3     1  UNL1        0.1659
     20 O         137.4050  143.2244  162.0042 O.3     1  UNL1       -0.3794
     21 H         137.1150  142.3111  162.1544 H       1  UNL1        0.2106
     22 C         138.6489  142.6898  164.2217 C.3     1  UNL1        0.1941
     23 C         138.1319  141.2826  164.1743 C.3     1  UNL1        0.0509
     24 C         138.4590  140.3257  165.2821 C.3     1  UNL1        0.0333
     25 C         139.3031  140.7761  166.4373 C.ar    1  UNL1        0.0141
     26 C         139.6303  139.8191  167.5452 C.ar    1  UNL1        0.0284
     27 C         140.4744  140.2695  168.7005 C.ar    1  UNL1        0.1400
     28 F         140.8015  139.3127  169.8083 F       1  UNL1       -0.2042
     29 C         140.9914  141.6769  168.7478 C.ar    1  UNL1        0.0327
     30 C         140.6643  142.6337  167.6400 C.ar    1  UNL1        0.0389
     31 C         139.8202  142.1833  166.4848 C.ar    1  UNL1        0.1346
     32 O         139.4930  143.1402  165.3769 O.3     1  UNL1       -0.4769
@<TRIPOS>BOND
     1     4     5    1
     2     5     3    1
     3     3     1    1
     4     1    18    1
     5    18    19    1
     6    19    20    1
     7    19    22    1
     8    22    23    1
     9    23    24    1
    10    24    25    1
    11    25    26   ar
    12    26    27   ar
    13    27    28    1
    14    27    29   ar
    15    29    30   ar
    16    30    31   ar
    17    31    32    1
    18     5     7    1
    19     7     8    1
    20     8     9    1
    21     9    10    1
    22    10    11   ar
    23    11    12   ar
    24    12    13    1
    25    12    14   ar
    26    14    15   ar
    27    15    16   ar
    28    16    17    1
    29    32    22    1
    30    17     7    1
    31    31    25   ar
    32    16    10   ar
    33     4     6    1
    34     1     2    1
    35    20    21    1
@<TRIPOS>MOLECULE
*****
 32 35 0 0 0
SMALL
GASTEIGER

@<TRIPOS>ATOM
      1 N         143.9979  143.8160  161.8559 N.3     1  UNL1       -0.2932
      2 H         144.4967  144.2862  161.1005 H       1  UNL1        0.1234
      3 C         144.4423  142.3835  161.8423 C.3     1  UNL1        0.1020
      4 O         146.6659  141.8618  163.0805 O.3     1  UNL1       -0.3794
      5 C         145.1678  141.8122  163.0243 C.3     1  UNL1        0.1659
      6 H         147.0054  142.2923  162.2803 H       1  UNL1        0.2106
      7 C         144.3952  141.1911  164.1501 C.3     1  UNL1        0.1941
      8 C         144.1876  139.7060  164.1876 C.3     1  UNL1        0.0509
      9 C         143.4151  139.0849  165.3134 C.3     1  UNL1        0.0333
     10 C         142.8501  139.9489  166.4016 C.ar    1  UNL1        0.0141
     11 C         142.0775  139.3278  167.5275 C.ar    1  UNL1        0.0284
     12 C         141.5126  140.1919  168.6157 C.ar    1  UNL1        0.1400
     13 F         140.7400  139.5708  169.7416 F       1  UNL1       -0.2042
     14 C         141.7202  141.6769  168.5782 C.ar    1  UNL1        0.0327
     15 C         142.4928  142.2980  167.4524 C.ar    1  UNL1        0.0389
     16 C         143.0577  141.4340  166.3641 C.ar    1  UNL1        0.1346
     17 O         143.8303  142.0551  165.2384 O.3     1  UNL1       -0.4769
     18 C         142.5453  144.1523  161.6907 C.3     1  UNL1        0.1020
     19 C         141.7082  144.4723  162.8935 C.3     1  UNL1        0.1659
     20 O         141.5858  145.8906  163.3663 O.3     1  UNL1       -0.3794
     21 H         141.0131  145.9223  164.1486 H       1  UNL1        0.2106
     22 C         140.9933  143.3740  163.6235 C.3     1  UNL1        0.1941
     23 C         140.1892  143.6883  164.8501 C.3     1  UNL1        0.0509
     24 C         139.4744  142.5901  165.5800 C.3     1  UNL1        0.0333
     25 C         139.5637  141.1775  165.0833 C.ar    1  UNL1        0.0141
     26 C         138.8488  140.0792  165.8133 C.ar    1  UNL1        0.0284
     27 C         138.9381  138.6667  165.3167 C.ar    1  UNL1        0.1400
     28 F         138.2233  137.5684  166.0466 F       1  UNL1       -0.2042
     29 C         139.7422  138.3524  164.0900 C.ar    1  UNL1        0.0327
     30 C         140.4570  139.4506  163.3600 C.ar    1  UNL1        0.0389
     31 C         140.3677  140.8632  163.8567 C.ar    1  UNL1        0.1346
     32 O         141.0826  141.9615  163.1268 O.3     1  UNL1       -0.4769
@<TRIPOS>BOND
     1     4     5    1
     2     5     3    1
     3     3     1    1
     4     1    18    1
     5    18    19    1
     6    19    20    1
     7    19    22    1
     8    22    23    1
     9    23    24    1
    10    24    25    1
    11    25    26   ar
    12    26    27   ar
    13    27    28    1
    14    27    29   ar
    15    29    30   ar
    16    30    31   ar
    17    31    32    1
    18     5     7    1
    19     7     8    1
    20     8     9    1
    21     9    10    1
    22    10    11   ar
    23    11    12   ar
    24    12    13    1
    25    12    14   ar
    26    14    15   ar
    27    15    16   ar
    28    16    17    1
    29    32    22    1
    30    17     7    1
    31    31    25   ar
    32    16    10   ar
    33     4     6    1
    34     1     2    1
    35    20    21    1
@<TRIPOS>MOLECULE
*****
 32 35 0 0 0
SMALL
GASTEIGER

@<TRIPOS>ATOM
      1 N         138.4201  138.1753  163.0550 N.3     1  UNL1       -0.2932
      2 H         137.6519  138.1316  163.7246 H       1  UNL1        0.1234
      3 C         139.6135  137.5608  163.7244 C.3     1  UNL1        0.1020
      4 O         141.6416  137.0960  162.1686 O.3     1  UNL1       -0.3794
      5 C         140.9961  137.9041  163.2550 C.3     1  UNL1        0.1659
      6 H         141.0345  136.3957  161.8824 H       1  UNL1        0.2106
      7 C         141.7334  139.0556  163.8721 C.3     1  UNL1        0.1941
      8 C         142.3134  138.9233  165.2490 C.3     1  UNL1        0.0509
      9 C         143.0506  140.0746  165.8661 C.3     1  UNL1        0.0333
     10 C         143.2078  141.3583  165.1062 C.ar    1  UNL1        0.0141
     11 C         143.9450  142.5097  165.7233 C.ar    1  UNL1        0.0284
     12 C         144.1022  143.7934  164.9634 C.ar    1  UNL1        0.1400
     13 F         144.8394  144.9449  165.5805 F       1  UNL1       -0.2042
     14 C         143.5221  143.9257  163.5865 C.ar    1  UNL1        0.0327
     15 C         142.7849  142.7744  162.9694 C.ar    1  UNL1        0.0389
     16 C         142.6277  141.4906  163.7293 C.ar    1  UNL1        0.1346
     17 O         141.8905  140.3392  163.1122 O.3     1  UNL1       -0.4769
     18 C         138.4833  139.5901  162.5603 C.3     1  UNL1        0.1020
     19 C         137.9260  140.7029  163.3974 C.3     1  UNL1        0.1659
     20 O         136.6130  141.3302  163.0333 O.3     1  UNL1       -0.3794
     21 H         136.3998  142.0281  163.6723 H       1  UNL1        0.2106
     22 C         138.6816  141.1886  164.5988 C.3     1  UNL1        0.1941
     23 C         139.2130  142.5908  164.6342 C.3     1  UNL1        0.0509
     24 C         139.9686  143.0764  165.8355 C.3     1  UNL1        0.0333
     25 C         140.1928  142.1597  167.0015 C.ar    1  UNL1        0.0141
     26 C         140.9485  142.6454  168.2028 C.ar    1  UNL1        0.0284
     27 C         141.1727  141.7287  169.3688 C.ar    1  UNL1        0.1400
     28 F         141.9283  142.2143  170.5701 F       1  UNL1       -0.2042
     29 C         140.6413  140.3264  169.3334 C.ar    1  UNL1        0.0327
     30 C         139.8857  139.8408  168.1320 C.ar    1  UNL1        0.0389
     31 C         139.6614  140.7575  166.9661 C.ar    1  UNL1        0.1346
     32 O         138.9058  140.2719  165.7648 O.3     1  UNL1       -0.4769
@<TRIPOS>BOND
     1     4     5    1
     2     5     3    1
     3     3     1    1
     4     1    18    1
     5    18    19    1
     6    19    20    1
     7    19    22    1
     8    22    23    1
     9    23    24    1
    10    24    25    1
    11    25    26   ar
    12    26    27   ar
    13    27    28    1
    14    27    29   ar
    15    29    30   ar
    16    30    31   ar
    17    31    32    1
    18     5     7    1
    19     7     8    1
    20     8     9    1
    21     9    10    1
    22    10    11   ar
    23    11    12   ar
    24    12    13    1
    25    12    14   ar
    26    14    15   ar
    27    15    16   ar
    28    16    17    1
    29    32    22    1
    30    17     7    1
    31    31    25   ar
    32    16    10   ar
    33     4     6    1
    34     1     2    1
    35    20    21    1
@<TRIPOS>MOLECULE
*****
 32 35 0 0 0
SMALL
GASTEIGER

@<TRIPOS>ATOM
      1 N         140.8001  141.9911  171.5795 N.3     1  UNL1       -0.2932
      2 H         140.6757  141.1312  172.1139 H       1  UNL1        0.1234
      3 C         139.7318  142.0050  170.5267 C.3     1  UNL1        0.1020
      4 O         138.8555  139.5642  170.6836 O.3     1  UNL1       -0.3794
      5 C         139.3212  140.7267  169.8579 C.3     1  UNL1        0.1659
      6 H         138.8802  139.8044  171.6231 H       1  UNL1        0.2106
      7 C         139.3764  140.6107  168.3634 C.3     1  UNL1        0.1941
      8 C         139.7522  141.8014  167.5321 C.3     1  UNL1        0.0509
      9 C         139.8074  141.6856  166.0377 C.3     1  UNL1        0.0333
     10 C         139.4868  140.3789  165.3744 C.ar    1  UNL1        0.0141
     11 C         139.5420  140.2630  163.8799 C.ar    1  UNL1        0.0284
     12 C         139.2215  138.9563  163.2167 C.ar    1  UNL1        0.1400
     13 F         139.2767  138.8404  161.7221 F       1  UNL1       -0.2042
     14 C         138.8457  137.7656  164.0479 C.ar    1  UNL1        0.0327
     15 C         138.7905  137.8815  165.5424 C.ar    1  UNL1        0.0389
     16 C         139.1111  139.1882  166.2057 C.ar    1  UNL1        0.1346
     17 O         139.0559  139.3041  167.7001 O.3     1  UNL1       -0.4769
     18 C         142.2454  142.0488  171.1822 C.3     1  UNL1        0.1020
     19 C         142.8640  140.9049  170.4346 C.3     1  UNL1        0.1659
     20 O         143.3735  139.7084  171.1821 O.3     1  UNL1       -0.3794
     21 H         143.7395  139.0664  170.5538 H       1  UNL1        0.2106
     22 C         142.9730  140.9576  168.9395 C.3     1  UNL1        0.1941
     23 C         143.2630  142.2598  168.2540 C.3     1  UNL1        0.0509
     24 C         143.3721  142.3124  166.7589 C.3     1  UNL1        0.0333
     25 C         143.1911  141.0627  165.9493 C.ar    1  UNL1        0.0141
     26 C         143.3002  141.1153  164.4542 C.ar    1  UNL1        0.0284
     27 C         143.1192  139.8656  163.6446 C.ar    1  UNL1        0.1400
     28 F         143.2283  139.9182  162.1495 F       1  UNL1       -0.2042
     29 C         142.8292  138.5633  164.3301 C.ar    1  UNL1        0.0327
     30 C         142.7202  138.5107  165.8252 C.ar    1  UNL1        0.0389
     31 C         142.9011  139.7604  166.6348 C.ar    1  UNL1        0.1346
     32 O         142.7921  139.7078  168.1299 O.3     1  UNL1       -0.4769
@<TRIPOS>BOND
     1     4     5    1
     2     5     3    1
     3     3     1    1
     4     1    18    1
     5    18    19    1
     6    19    20    1
     7    19    22    1
     8    22    23    1
     9    23    24    1
    10    24    25    1
    11    25    26   ar
    12    26    27   ar
    13    27    28    1
    14    27    29   ar
    15    29    30   ar
    16    30    31   ar
    17    31    32    1
    18     5     7    1
    19     7     8    1
    20     8     9    1
    21     9    10    1
    22    10    11   ar
    23    11    12   ar
    24    12    13    1
    25    12    14   ar
    26    14    15   ar
    27    15    16   ar
    28    16    17    1
    29    32    22    1
    30    17     7    1
    31    31    25   ar
    32    16    10   ar
    33     4     6    1
    34     1     2    1
    35    20    21    1
@<TRIPOS>MOLECULE
*****
 32 35 0 0 0
SMALL
GASTEIGER

@<TRIPOS>ATOM
      1 N         143.0557  145.1343  162.5487 N.3     1  UNL1       -0.2932
      2 H         143.4577  146.0437  162.3213 H       1  UNL1        0.1234
      3 C         142.1311  145.3478  163.7104 C.3     1  UNL1        0.1020
      4 O         139.6671  145.7482  162.9907 O.3     1  UNL1       -0.3794
      5 C         140.7082  144.8797  163.6324 C.3     1  UNL1        0.1659
      6 H         140.0779  146.5706  162.6814 H       1  UNL1        0.2106
      7 C         140.3264  143.5431  164.1961 C.3     1  UNL1        0.1941
      8 C         140.0562  143.3979  165.6644 C.3     1  UNL1        0.0509
      9 C         139.6744  142.0614  166.2282 C.3     1  UNL1        0.0333
     10 C         139.5628  140.8700  165.3237 C.ar    1  UNL1        0.0141
     11 C         139.1810  139.5334  165.8874 C.ar    1  UNL1        0.0284
     12 C         139.0694  138.3421  164.9828 C.ar    1  UNL1        0.1400
     13 F         138.6876  137.0055  165.5466 F       1  UNL1       -0.2042
     14 C         139.3396  138.4873  163.5145 C.ar    1  UNL1        0.0327
     15 C         139.7214  139.8238  162.9508 C.ar    1  UNL1        0.0389
     16 C         139.8330  141.0152  163.8554 C.ar    1  UNL1        0.1346
     17 O         140.2148  142.3518  163.2916 O.3     1  UNL1       -0.4769
     18 C         144.2005  144.1724  162.6682 C.3     1  UNL1        0.1020
     19 C         143.9719  142.7048  162.4590 C.3     1  UNL1        0.1659
     20 O         144.0621  142.1207  161.0804 O.3     1  UNL1       -0.3794
     21 H         143.8889  141.1672  161.1212 H       1  UNL1        0.2106
     22 C         143.6531  141.8212  163.6285 C.3     1  UNL1        0.1941
     23 C         143.4616  140.3475  163.4248 C.3     1  UNL1        0.0509
     24 C         143.1428  139.4640  164.5943 C.3     1  UNL1        0.0333
     25 C         143.0156  140.0541  165.9675 C.ar    1  UNL1        0.0141
     26 C         142.6968  139.1705  167.1370 C.ar    1  UNL1        0.0284
     27 C         142.5696  139.7607  168.5101 C.ar    1  UNL1        0.1400
     28 F         142.2508  138.8771  169.6796 F       1  UNL1       -0.2042
     29 C         142.7611  141.2344  168.7138 C.ar    1  UNL1        0.0327
     30 C         143.0799  142.1180  167.5443 C.ar    1  UNL1        0.0389
     31 C         143.2071  141.5278  166.1711 C.ar    1  UNL1        0.1346
     32 O         143.5259  142.4113  165.0017 O.3     1  UNL1       -0.4769
@<TRIPOS>BOND
     1     4     5    1
     2     5     3    1
     3     3     1    1
     4     1    18    1
     5    18    19    1
     6    19    20    1
     7    19    22    1
     8    22    23    1
     9    23    24    1
    10    24    25    1
    11    25    26   ar
    12    26    27   ar
    13    27    28    1
    14    27    29   ar
    15    29    30   ar
    16    30    31   ar
    17    31    32    1
    18     5     7    1
    19     7     8    1
    20     8     9    1
    21     9    10    1
    22    10    11   ar
    23    11    12   ar
    24    12    13    1
    25    12    14   ar
    26    14    15   ar
    27    15    16   ar
    28    16    17    1
    29    32    22    1
    30    17     7    1
    31    31    25   ar
    32    16    10   ar
    33     4     6    1
    34     1     2    1
    35    20    21    1
@<TRIPOS>MOLECULE
*****
 32 35 0 0 0
SMALL
GASTEIGER

@<TRIPOS>ATOM
      1 N         144.8901  139.1025  163.4026 N.3     1  UNL1       -0.2932
      2 H         145.7131  138.6090  163.0569 H       1  UNL1        0.1234
      3 C         143.8293  138.9650  162.3510 C.3     1  UNL1        0.1020
      4 O         141.9468  137.2511  161.8327 O.3     1  UNL1       -0.3794
      5 C         142.5087  138.3424  162.6949 C.3     1  UNL1        0.1659
      6 H         142.5577  137.0700  161.1013 H       1  UNL1        0.2106
      7 C         141.7499  138.8111  163.9009 C.3     1  UNL1        0.1941
      8 C         140.3081  139.2051  163.7735 C.3     1  UNL1        0.0509
      9 C         139.5493  139.6738  164.9795 C.3     1  UNL1        0.0333
     10 C         140.2322  139.7486  166.3129 C.ar    1  UNL1        0.0141
     11 C         139.4734  140.2173  167.5190 C.ar    1  UNL1        0.0284
     12 C         140.1563  140.2921  168.8524 C.ar    1  UNL1        0.1400
     13 F         139.3974  140.7608  170.0584 F       1  UNL1       -0.2042
     14 C         141.5980  139.8981  168.9798 C.ar    1  UNL1        0.0327
     15 C         142.3568  139.4294  167.7738 C.ar    1  UNL1        0.0389
     16 C         141.6739  139.3546  166.4403 C.ar    1  UNL1        0.1346
     17 O         142.4328  138.8859  165.2343 O.3     1  UNL1       -0.4769
     18 C         145.3500  140.4647  163.8304 C.3     1  UNL1        0.1020
     19 C         144.6977  141.6896  163.2611 C.3     1  UNL1        0.1659
     20 O         145.3377  142.4166  162.1158 O.3     1  UNL1       -0.3794
     21 H         144.7911  143.1797  161.8713 H       1  UNL1        0.2106
     22 C         143.4053  142.1876  163.8373 C.3     1  UNL1        0.1941
     23 C         143.2868  142.4327  165.3123 C.3     1  UNL1        0.0509
     24 C         141.9945  142.9307  165.8884 C.3     1  UNL1        0.0333
     25 C         140.8206  143.1835  164.9894 C.ar    1  UNL1        0.0141
     26 C         139.5282  143.6814  165.5655 C.ar    1  UNL1        0.0284
     27 C         138.3544  143.9342  164.6665 C.ar    1  UNL1        0.1400
     28 F         137.0621  144.4321  165.2425 F       1  UNL1       -0.2042
     29 C         138.4729  143.6890  163.1914 C.ar    1  UNL1        0.0327
     30 C         139.7653  143.1911  162.6153 C.ar    1  UNL1        0.0389
     31 C         140.9391  142.9383  163.5143 C.ar    1  UNL1        0.1346
     32 O         142.2315  142.4404  162.9383 O.3     1  UNL1       -0.4769
@<TRIPOS>BOND
     1     4     5    1
     2     5     3    1
     3     3     1    1
     4     1    18    1
     5    18    19    1
     6    19    20    1
     7    19    22    1
     8    22    23    1
     9    23    24    1
    10    24    25    1
    11    25    26   ar
    12    26    27   ar
    13    27    28    1
    14    27    29   ar
    15    29    30   ar
    16    30    31   ar
    17    31    32    1
    18     5     7    1
    19     7     8    1
    20     8     9    1
    21     9    10    1
    22    10    11   ar
    23    11    12   ar
    24    12    13    1
    25    12    14   ar
    26    14    15   ar
    27    15    16   ar
    28    16    17    1
    29    32    22    1
    30    17     7    1
    31    31    25   ar
    32    16    10   ar
    33     4     6    1
    34     1     2    1
    35    20    21    1
@<TRIPOS>MOLECULE
*****
 32 35 0 0 0
SMALL
GASTEIGER

@<TRIPOS>ATOM
      1 N         138.0595  144.0756  161.6780 N.3     1  UNL1       -0.2932
      2 H         137.8063  143.2373  161.1550 H       1  UNL1        0.1234
      3 C         139.3838  144.5353  161.1443 C.3     1  UNL1        0.1020
      4 O         140.3263  146.6087  162.3944 O.3     1  UNL1       -0.3794
      5 C         140.3942  145.1459  162.0697 C.3     1  UNL1        0.1659
      6 H         139.5765  147.0092  161.9273 H       1  UNL1        0.2106
      7 C         141.4726  144.2935  162.6703 C.3     1  UNL1        0.1941
      8 C         142.3152  144.8287  163.7899 C.3     1  UNL1        0.0509
      9 C         143.3935  143.9764  164.3906 C.3     1  UNL1        0.0333
     10 C         143.6292  142.5890  163.8717 C.ar    1  UNL1        0.0141
     11 C         144.7075  141.7366  164.4723 C.ar    1  UNL1        0.0284
     12 C         144.9432  140.3491  163.9534 C.ar    1  UNL1        0.1400
     13 F         146.0215  139.4968  164.5541 F       1  UNL1       -0.2042
     14 C         144.1005  139.8139  162.8338 C.ar    1  UNL1        0.0327
     15 C         143.0222  140.6662  162.2332 C.ar    1  UNL1        0.0389
     16 C         142.7865  142.0538  162.7521 C.ar    1  UNL1        0.1346
     17 O         141.7082  142.9060  162.1514 O.3     1  UNL1       -0.4769
     18 C         137.9129  143.7393  163.1326 C.3     1  UNL1        0.1020
     19 C         137.8499  142.3054  163.5682 C.3     1  UNL1        0.1659
     20 O         136.6430  141.4755  163.2445 O.3     1  UNL1       -0.3794
     21 H         136.7633  140.5792  163.5953 H       1  UNL1        0.2106
     22 C         138.9938  141.7012  164.3275 C.3     1  UNL1        0.1941
     23 C         139.6614  142.4792  165.4224 C.3     1  UNL1        0.0509
     24 C         140.8053  141.8750  166.1817 C.3     1  UNL1        0.0333
     25 C         141.2815  140.4928  165.8460 C.ar    1  UNL1        0.0141
     26 C         142.4254  139.8886  166.6054 C.ar    1  UNL1        0.0284
     27 C         142.9016  138.5064  166.2698 C.ar    1  UNL1        0.1400
     28 F         144.0454  137.9022  167.0290 F       1  UNL1       -0.2042
     29 C         142.2339  137.7283  165.1748 C.ar    1  UNL1        0.0327
     30 C         141.0900  138.3325  164.4155 C.ar    1  UNL1        0.0389
     31 C         140.6138  139.7148  164.7512 C.ar    1  UNL1        0.1346
     32 O         139.4700  140.3189  163.9919 O.3     1  UNL1       -0.4769
@<TRIPOS>BOND
     1     4     5    1
     2     5     3    1
     3     3     1    1
     4     1    18    1
     5    18    19    1
     6    19    20    1
     7    19    22    1
     8    22    23    1
     9    23    24    1
    10    24    25    1
    11    25    26   ar
    12    26    27   ar
    13    27    28    1
    14    27    29   ar
    15    29    30   ar
    16    30    31   ar
    17    31    32    1
    18     5     7    1
    19     7     8    1
    20     8     9    1
    21     9    10    1
    22    10    11   ar
    23    11    12   ar
    24    12    13    1
    25    12    14   ar
    26    14    15   ar
    27    15    16   ar
    28    16    17    1
    29    32    22    1
    30    17     7    1
    31    31    25   ar
    32    16    10   ar
    33     4     6    1
    34     1     2    1
    35    20    21    1
