@<TRIPOS>MOLECULE
*****
 30 35 0 0 0
SMALL
GASTEIGER

@<TRIPOS>ATOM
      1 C         140.5390  138.7806  160.7074 C.3     1  UNL1        0.0493
      2 C         141.9430  138.2611  160.8023 C.3     1  UNL1        0.0238
      3 C         142.6304  137.7297  159.5794 C.3     1  UNL1        0.0730
      4 N         141.9137  137.7180  158.2617 N.3     1  UNL1       -0.2623
      5 C         140.5097  138.2376  158.1669 C.3     1  UNL1        0.0730
      6 C         139.8224  138.7689  159.3897 C.3     1  UNL1        0.0238
      7 C         139.4499  140.1406  164.1757 C.ar    1  UNL1        0.1224
      8 C         138.1383  140.1184  163.4482 C.ar    1  UNL1        0.0587
      9 S         138.3867  139.6062  162.0604 S.2     1  UNL1       -0.0701
     10 C         139.8517  139.3119  161.9302 C.ar    1  UNL1        0.0880
     11 N         140.5089  139.6422  163.2376 N.ar    1  UNL1       -0.2396
     12 C         140.0747  141.3874  170.4733 C.ar    1  UNL1        0.0002
     13 C         140.6609  142.6773  169.9811 C.ar    1  UNL1        0.0031
     14 C         140.7679  142.9387  168.5079 C.ar    1  UNL1        0.0375
     15 C         140.2887  141.9102  167.5270 C.ar    1  UNL1        0.1454
     16 O         140.2654  141.8875  166.0273 O.2     1  UNL1       -0.4520
     17 C         139.6648  140.5835  165.5927 C.ar    1  UNL1        0.1633
     18 C         139.3169  139.8003  166.8237 C.ar    1  UNL1        0.0421
     19 C         139.7025  140.6202  168.0191 C.ar    1  UNL1        0.0376
     20 C         139.5955  140.3588  169.4923 C.ar    1  UNL1        0.0031
     21 C         142.6010  137.1867  157.0389 C.3     1  UNL1        0.1978
     22 C         142.5215  135.7256  156.7091 C.2     1  UNL1        0.3718
     23 N         143.2926  134.6272  157.3791 N.2     1  UNL1        0.0124
     24 C         142.9045  133.3291  156.7354 C.2     1  UNL1        0.4184
     25 N         143.3411  131.9157  156.9836 N.2     1  UNL1       -0.0277
     26 C         142.7667  130.7983  156.1641 C.2     1  UNL1        0.2320
     27 C         141.7558  131.0945  155.0963 C.2     1  UNL1        0.0333
     28 C         141.3192  132.5079  154.8480 C.3     1  UNL1        0.1120
     29 C         141.8935  133.6252  155.6676 C.2     1  UNL1        0.2626
     30 N         141.6568  135.1063  155.6513 N.2     1  UNL1       -0.0332
@<TRIPOS>BOND
     1    12    13   ar
     2    13    14   ar
     3    14    15   ar
     4    15    16   ar
     5    16    17   ar
     6    17     7    1
     7     7     8   ar
     8     8     9   ar
     9     9    10   ar
    10    10     1    1
    11     1     2    1
    12     2     3    1
    13     3     4    1
    14     4    21    1
    15    21    22    1
    16    22    23    2
    17    23    24    1
    18    24    25    2
    19    25    26    1
    20    26    27    2
    21    27    28    1
    22    28    29    1
    23    29    30    2
    24     4     5    1
    25     5     6    1
    26    10    11   ar
    27    17    18   ar
    28    18    19   ar
    29    19    20   ar
    30    20    12   ar
    31    19    15   ar
    32    11     7   ar
    33     6     1    1
    34    30    22    1
    35    29    24    1
@<TRIPOS>MOLECULE
*****
 30 35 0 0 0
SMALL
GASTEIGER

@<TRIPOS>ATOM
      1 C         141.0931  138.7168  161.1284 C.3     1  UNL1        0.0493
      2 C         140.2725  138.9035  159.8868 C.3     1  UNL1        0.0238
      3 C         140.7948  138.4270  158.5638 C.3     1  UNL1        0.0730
      4 N         142.1378  137.7639  158.4825 N.3     1  UNL1       -0.2623
      5 C         142.9585  137.5772  159.7242 C.3     1  UNL1        0.0730
      6 C         142.4361  138.0537  161.0472 C.3     1  UNL1        0.0238
      7 C         140.4441  140.2015  164.6554 C.ar    1  UNL1        0.1224
      8 C         139.0898  139.6514  164.3188 C.ar    1  UNL1        0.0587
      9 S         139.1681  139.0282  162.9566 S.2     1  UNL1       -0.0701
     10 C         140.5708  139.1933  162.4513 C.ar    1  UNL1        0.0880
     11 N         141.3594  139.9184  163.5013 N.ar    1  UNL1       -0.2396
     12 C         142.7192  142.9142  170.0470 C.ar    1  UNL1        0.0002
     13 C         141.3586  143.5437  170.0958 C.ar    1  UNL1        0.0031
     14 C         140.3549  143.2445  169.0219 C.ar    1  UNL1        0.0375
     15 C         140.7118  142.3159  167.8994 C.ar    1  UNL1        0.1454
     16 O         139.9362  141.8363  166.7084 O.2     1  UNL1       -0.4520
     17 C         140.8175  140.9104  165.9235 C.ar    1  UNL1        0.1633
     18 C         142.1378  140.8177  166.6294 C.ar    1  UNL1        0.0421
     19 C         142.0724  141.6865  167.8506 C.ar    1  UNL1        0.0376
     20 C         143.0761  141.9856  168.9244 C.ar    1  UNL1        0.0031
     21 C         142.6602  137.2875  157.1596 C.3     1  UNL1        0.1978
     22 C         142.5331  135.8420  156.7797 C.2     1  UNL1        0.3718
     23 N         141.6423  135.2870  155.7081 N.2     1  UNL1        0.0124
     24 C         141.8332  133.7997  155.6708 C.2     1  UNL1        0.4184
     25 N         141.2188  132.7299  154.8175 N.2     1  UNL1       -0.0277
     26 C         141.6132  131.2959  155.0128 C.2     1  UNL1        0.2320
     27 C         142.6220  130.9317  156.0614 C.2     1  UNL1        0.0333
     28 C         143.2364  132.0015  156.9147 C.3     1  UNL1        0.1120
     29 C         142.8420  133.4354  156.7194 C.2     1  UNL1        0.2626
     30 N         143.2746  134.6976  157.4047 N.2     1  UNL1       -0.0332
@<TRIPOS>BOND
     1    12    13   ar
     2    13    14   ar
     3    14    15   ar
     4    15    16   ar
     5    16    17   ar
     6    17     7    1
     7     7     8   ar
     8     8     9   ar
     9     9    10   ar
    10    10     1    1
    11     1     2    1
    12     2     3    1
    13     3     4    1
    14     4    21    1
    15    21    22    1
    16    22    23    2
    17    23    24    1
    18    24    25    2
    19    25    26    1
    20    26    27    2
    21    27    28    1
    22    28    29    1
    23    29    30    2
    24     4     5    1
    25     5     6    1
    26    10    11   ar
    27    17    18   ar
    28    18    19   ar
    29    19    20   ar
    30    20    12   ar
    31    19    15   ar
    32    11     7   ar
    33     6     1    1
    34    30    22    1
    35    29    24    1
@<TRIPOS>MOLECULE
*****
 30 35 0 0 0
SMALL
GASTEIGER

@<TRIPOS>ATOM
      1 C         143.2484  139.5089  160.9258 C.3     1  UNL1        0.0493
      2 C         142.6396  138.1551  160.7097 C.3     1  UNL1        0.0238
      3 C         142.5339  137.5930  159.3230 C.3     1  UNL1        0.0730
      4 N         143.0368  138.3847  158.1524 N.3     1  UNL1       -0.2623
      5 C         143.6455  139.7386  158.3685 C.3     1  UNL1        0.0730
      6 C         143.7513  140.3006  159.7552 C.3     1  UNL1        0.0238
      7 C         142.8044  140.7427  164.5789 C.ar    1  UNL1        0.1224
      8 C         144.2293  141.1292  164.3137 C.ar    1  UNL1        0.0587
      9 S         144.5690  140.7140  162.9129 S.2     1  UNL1       -0.0701
     10 C         143.3541  140.0710  162.3124 C.ar    1  UNL1        0.0880
     11 N         142.2635  140.0888  163.3422 N.ar    1  UNL1       -0.2396
     12 C         139.2898  141.0312  169.9798 C.ar    1  UNL1        0.0002
     13 C         139.8956  142.3988  170.0926 C.ar    1  UNL1        0.0031
     14 C         140.8497  142.8854  169.0425 C.ar    1  UNL1        0.0375
     15 C         141.1981  142.0045  167.8795 C.ar    1  UNL1        0.1454
     16 O         142.1004  142.2106  166.6991 O.2     1  UNL1       -0.4520
     17 C         142.0524  140.9704  165.8567 C.ar    1  UNL1        0.1633
     18 C         141.1203  139.9978  166.5165 C.ar    1  UNL1        0.0421
     19 C         140.5923  140.6370  167.7666 C.ar    1  UNL1        0.0376
     20 C         139.6382  140.1503  168.8168 C.ar    1  UNL1        0.0031
     21 C         142.9311  137.8226  156.7657 C.3     1  UNL1        0.1978
     22 C         142.7561  136.3463  156.5662 C.2     1  UNL1        0.3718
     23 N         141.7414  135.6909  155.6769 N.2     1  UNL1        0.0124
     24 C         141.9233  134.2057  155.7821 C.2     1  UNL1        0.4184
     25 N         141.2083  133.0584  155.1322 N.2     1  UNL1       -0.0277
     26 C         141.6202  131.6486  155.4366 C.2     1  UNL1        0.2320
     27 C         142.7472  131.3861  156.3910 C.2     1  UNL1        0.0333
     28 C         143.4623  132.5334  157.0410 C.3     1  UNL1        0.1120
     29 C         143.0503  133.9431  156.7365 C.2     1  UNL1        0.2626
     30 N         143.5650  135.2661  157.2211 N.2     1  UNL1       -0.0332
@<TRIPOS>BOND
     1    12    13   ar
     2    13    14   ar
     3    14    15   ar
     4    15    16   ar
     5    16    17   ar
     6    17     7    1
     7     7     8   ar
     8     8     9   ar
     9     9    10   ar
    10    10     1    1
    11     1     2    1
    12     2     3    1
    13     3     4    1
    14     4    21    1
    15    21    22    1
    16    22    23    2
    17    23    24    1
    18    24    25    2
    19    25    26    1
    20    26    27    2
    21    27    28    1
    22    28    29    1
    23    29    30    2
    24     4     5    1
    25     5     6    1
    26    10    11   ar
    27    17    18   ar
    28    18    19   ar
    29    19    20   ar
    30    20    12   ar
    31    19    15   ar
    32    11     7   ar
    33     6     1    1
    34    30    22    1
    35    29    24    1
@<TRIPOS>MOLECULE
*****
 30 35 0 0 0
SMALL
GASTEIGER

@<TRIPOS>ATOM
      1 C         140.8945  138.7568  159.7380 C.3     1  UNL1        0.0493
      2 C         142.3030  138.3434  159.4297 C.3     1  UNL1        0.0238
      3 C         142.6151  137.6497  158.1367 C.3     1  UNL1        0.0730
      4 N         141.5186  137.3695  157.1522 N.3     1  UNL1       -0.2623
      5 C         140.1100  137.7830  157.4607 C.3     1  UNL1        0.0730
      6 C         139.7980  138.4766  158.7535 C.3     1  UNL1        0.0238
      7 C         140.4795  139.9890  163.3951 C.ar    1  UNL1        0.1224
      8 C         139.7249  141.0467  162.6456 C.ar    1  UNL1        0.0587
      9 S         139.7885  140.7138  161.1843 S.2     1  UNL1       -0.0701
     10 C         140.5824  139.4505  161.0309 C.ar    1  UNL1        0.0880
     11 N         141.0095  139.0025  162.3973 N.ar    1  UNL1       -0.2396
     12 C         140.5770  139.9194  169.8442 C.ar    1  UNL1        0.0002
     13 C         142.0146  139.5413  169.6439 C.ar    1  UNL1        0.0031
     14 C         142.5680  139.4047  168.2564 C.ar    1  UNL1        0.0375
     15 C         141.6836  139.6462  167.0692 C.ar    1  UNL1        0.1454
     16 O         141.9461  139.5869  165.5935 O.2     1  UNL1       -0.4520
     17 C         140.6706  139.9284  164.8817 C.ar    1  UNL1        0.1633
     18 C         139.6199  140.1987  165.9175 C.ar    1  UNL1        0.0421
     19 C         140.2460  140.0243  167.2694 C.ar    1  UNL1        0.0376
     20 C         139.6927  140.1609  168.6569 C.ar    1  UNL1        0.0031
     21 C         141.8307  136.6759  155.8594 C.3     1  UNL1        0.1978
     22 C         142.3524  135.2696  155.8697 C.2     1  UNL1        0.3718
     23 N         143.7737  134.8583  156.1165 N.2     1  UNL1        0.0124
     24 C         143.8441  133.3622  156.0344 C.2     1  UNL1        0.4184
     25 N         144.9848  132.4010  156.1921 N.2     1  UNL1       -0.0277
     26 C         144.7478  130.9264  156.0522 C.2     1  UNL1        0.2320
     27 C         143.3702  130.4132  155.7546 C.2     1  UNL1        0.0333
     28 C         142.2296  131.3744  155.5969 C.3     1  UNL1        0.1120
     29 C         142.4665  132.8489  155.7367 C.2     1  UNL1        0.2626
     30 N         141.5446  134.0277  155.6350 N.2     1  UNL1       -0.0332
@<TRIPOS>BOND
     1    12    13   ar
     2    13    14   ar
     3    14    15   ar
     4    15    16   ar
     5    16    17   ar
     6    17     7    1
     7     7     8   ar
     8     8     9   ar
     9     9    10   ar
    10    10     1    1
    11     1     2    1
    12     2     3    1
    13     3     4    1
    14     4    21    1
    15    21    22    1
    16    22    23    2
    17    23    24    1
    18    24    25    2
    19    25    26    1
    20    26    27    2
    21    27    28    1
    22    28    29    1
    23    29    30    2
    24     4     5    1
    25     5     6    1
    26    10    11   ar
    27    17    18   ar
    28    18    19   ar
    29    19    20   ar
    30    20    12   ar
    31    19    15   ar
    32    11     7   ar
    33     6     1    1
    34    30    22    1
    35    29    24    1
@<TRIPOS>MOLECULE
*****
 30 35 0 0 0
SMALL
GASTEIGER

@<TRIPOS>ATOM
      1 C         140.9559  138.3262  161.1906 C.3     1  UNL1        0.0493
      2 C         140.1015  138.7619  160.0373 C.3     1  UNL1        0.0238
      3 C         140.6449  138.7110  158.6400 C.3     1  UNL1        0.0730
      4 N         142.0427  138.2244  158.3962 N.3     1  UNL1       -0.2623
      5 C         142.8971  137.7887  159.5496 C.3     1  UNL1        0.0730
      6 C         142.3537  137.8396  160.9468 C.3     1  UNL1        0.0238
      7 C         140.1854  138.8320  164.9609 C.ar    1  UNL1        0.1224
      8 C         138.9672  138.0790  164.5147 C.ar    1  UNL1        0.0587
      9 S         139.1076  137.7979  163.0479 S.2     1  UNL1       -0.0701
     10 C         140.4125  138.3771  162.5878 C.ar    1  UNL1        0.0880
     11 N         141.0786  139.0163  163.7702 N.ar    1  UNL1       -0.2396
     12 C         142.1026  140.8361  170.7844 C.ar    1  UNL1        0.0002
     13 C         140.6287  140.9604  171.0336 C.ar    1  UNL1        0.0031
     14 C         139.6524  140.6036  169.9522 C.ar    1  UNL1        0.0375
     15 C         140.1500  140.1224  168.6215 C.ar    1  UNL1        0.1454
     16 O         139.4318  139.7007  167.3740 O.2     1  UNL1       -0.4520
     17 C         140.4618  139.3158  166.3537 C.ar    1  UNL1        0.1633
     18 C         141.8166  139.4996  166.9706 C.ar    1  UNL1        0.0421
     19 C         141.6239  139.9981  168.3722 C.ar    1  UNL1        0.0376
     20 C         142.6002  140.3550  169.4536 C.ar    1  UNL1        0.0031
     21 C         142.5862  138.1734  156.9990 C.3     1  UNL1        0.1978
     22 C         143.6465  139.1442  156.5709 C.2     1  UNL1        0.3718
     23 N         144.3270  140.1510  157.4502 N.2     1  UNL1        0.0124
     24 C         145.3135  140.9077  156.6109 C.2     1  UNL1        0.4184
     25 N         146.2672  142.0180  156.9391 N.2     1  UNL1       -0.0277
     26 C         147.1500  142.5891  155.8693 C.2     1  UNL1        0.2320
     27 C         147.0791  142.0499  154.4714 C.2     1  UNL1        0.0333
     28 C         146.1254  140.9396  154.1433 C.3     1  UNL1        0.1120
     29 C         145.2427  140.3685  155.2130 C.2     1  UNL1        0.2626
     30 N         144.2124  139.2786  155.1883 N.2     1  UNL1       -0.0332
@<TRIPOS>BOND
     1    12    13   ar
     2    13    14   ar
     3    14    15   ar
     4    15    16   ar
     5    16    17   ar
     6    17     7    1
     7     7     8   ar
     8     8     9   ar
     9     9    10   ar
    10    10     1    1
    11     1     2    1
    12     2     3    1
    13     3     4    1
    14     4    21    1
    15    21    22    1
    16    22    23    2
    17    23    24    1
    18    24    25    2
    19    25    26    1
    20    26    27    2
    21    27    28    1
    22    28    29    1
    23    29    30    2
    24     4     5    1
    25     5     6    1
    26    10    11   ar
    27    17    18   ar
    28    18    19   ar
    29    19    20   ar
    30    20    12   ar
    31    19    15   ar
    32    11     7   ar
    33     6     1    1
    34    30    22    1
    35    29    24    1
@<TRIPOS>MOLECULE
*****
 30 35 0 0 0
SMALL
GASTEIGER

@<TRIPOS>ATOM
      1 C         143.7165  140.6322  160.0971 C.3     1  UNL1        0.0493
      2 C         143.5934  139.7928  158.8601 C.3     1  UNL1        0.0238
      3 C         143.8696  140.3952  157.5143 C.3     1  UNL1        0.0730
      4 N         144.2689  141.8370  157.4057 N.3     1  UNL1       -0.2623
      5 C         144.3920  142.6764  158.6428 C.3     1  UNL1        0.0730
      6 C         144.1157  142.0740  159.9885 C.3     1  UNL1        0.0238
      7 C         143.1196  139.7724  163.8347 C.ar    1  UNL1        0.1224
      8 C         142.9107  138.4330  163.1923 C.ar    1  UNL1        0.0587
      9 S         143.1089  138.5922  161.7139 S.2     1  UNL1       -0.0701
     10 C         143.4402  140.0298  161.4427 C.ar    1  UNL1        0.0880
     11 N         143.4468  140.7592  162.7535 N.ar    1  UNL1       -0.2396
     12 C         142.5617  140.3275  170.2366 C.ar    1  UNL1        0.0002
     13 C         142.8173  141.7789  169.9573 C.ar    1  UNL1        0.0031
     14 C         143.0323  142.2449  168.5478 C.ar    1  UNL1        0.0375
     15 C         142.9917  141.2595  167.4177 C.ar    1  UNL1        0.1454
     16 O         143.1665  141.4228  165.9369 O.2     1  UNL1       -0.4520
     17 C         143.0189  140.0723  165.3010 C.ar    1  UNL1        0.1633
     18 C         142.7530  139.0743  166.3888 C.ar    1  UNL1        0.0421
     19 C         142.7362  139.8081  167.6970 C.ar    1  UNL1        0.0376
     20 C         142.5212  139.3421  169.1065 C.ar    1  UNL1        0.0031
     21 C         144.5451  142.4394  156.0601 C.3     1  UNL1        0.1978
     22 C         145.9482  142.4826  155.5314 C.2     1  UNL1        0.3718
     23 N         147.1266  141.7467  156.0970 N.2     1  UNL1        0.0124
     24 C         148.3259  142.0786  155.2595 C.2     1  UNL1        0.4184
     25 N         149.7595  141.6455  155.3433 N.2     1  UNL1       -0.0277
     26 C         150.7561  142.1535  154.3438 C.2     1  UNL1        0.2320
     27 C         150.3190  143.0945  153.2607 C.2     1  UNL1        0.0333
     28 C         148.8853  143.5276  153.1769 C.3     1  UNL1        0.1120
     29 C         147.8888  143.0197  154.1763 C.2     1  UNL1        0.2626
     30 N         146.4193  143.2694  154.3444 N.2     1  UNL1       -0.0332
@<TRIPOS>BOND
     1    12    13   ar
     2    13    14   ar
     3    14    15   ar
     4    15    16   ar
     5    16    17   ar
     6    17     7    1
     7     7     8   ar
     8     8     9   ar
     9     9    10   ar
    10    10     1    1
    11     1     2    1
    12     2     3    1
    13     3     4    1
    14     4    21    1
    15    21    22    1
    16    22    23    2
    17    23    24    1
    18    24    25    2
    19    25    26    1
    20    26    27    2
    21    27    28    1
    22    28    29    1
    23    29    30    2
    24     4     5    1
    25     5     6    1
    26    10    11   ar
    27    17    18   ar
    28    18    19   ar
    29    19    20   ar
    30    20    12   ar
    31    19    15   ar
    32    11     7   ar
    33     6     1    1
    34    30    22    1
    35    29    24    1
@<TRIPOS>MOLECULE
*****
 30 35 0 0 0
SMALL
GASTEIGER

@<TRIPOS>ATOM
      1 C         141.7807  139.4575  157.1270 C.3     1  UNL1        0.0493
      2 C         142.2467  140.8173  156.6982 C.3     1  UNL1        0.0238
      3 C         141.4998  142.0404  157.1412 C.3     1  UNL1        0.0730
      4 N         140.2868  141.9037  158.0131 N.3     1  UNL1       -0.2623
      5 C         139.8208  140.5438  158.4418 C.3     1  UNL1        0.0730
      6 C         140.5677  139.3208  157.9988 C.3     1  UNL1        0.0238
      7 C         143.2667  135.9328  156.4692 C.ar    1  UNL1        0.1224
      8 C         144.0873  136.7721  155.5353 C.ar    1  UNL1        0.0587
      9 S         143.6304  138.1947  155.6681 S.2     1  UNL1       -0.0701
     10 C         142.5276  138.2345  156.6840 C.ar    1  UNL1        0.0880
     11 N         142.3028  136.8364  157.1791 N.ar    1  UNL1       -0.2396
     12 C         143.1919  129.4937  156.8398 C.ar    1  UNL1        0.0002
     13 C         144.3834  129.7056  157.7261 C.ar    1  UNL1        0.0031
     14 C         144.8735  131.0957  158.0042 C.ar    1  UNL1        0.0375
     15 C         144.1721  132.2740  157.3961 C.ar    1  UNL1        0.1454
     16 O         144.4243  133.7497  157.4887 O.2     1  UNL1       -0.4520
     17 C         143.3886  134.4499  156.6597 C.ar    1  UNL1        0.1633
     18 C         142.4964  133.4069  156.0547 C.ar    1  UNL1        0.0421
     19 C         142.9807  132.0620  156.5098 C.ar    1  UNL1        0.0376
     20 C         142.4906  130.6719  156.2317 C.ar    1  UNL1        0.0031
     21 C         139.5399  143.1267  158.4561 C.3     1  UNL1        0.1978
     22 C         139.3532  143.4027  159.9186 C.2     1  UNL1        0.3718
     23 N         138.1823  142.9768  160.7538 N.2     1  UNL1        0.0124
     24 C         138.4101  143.4640  162.1541 C.2     1  UNL1        0.4184
     25 N         137.5926  143.3396  163.4055 N.2     1  UNL1       -0.0277
     26 C         138.0868  143.9421  164.6872 C.2     1  UNL1        0.2320
     27 C         139.3985  144.6690  164.7174 C.2     1  UNL1        0.0333
     28 C         140.2160  144.7934  163.4660 C.3     1  UNL1        0.1120
     29 C         139.7218  144.1909  162.1843 C.2     1  UNL1        0.2626
     30 N         140.3047  144.1531  160.8027 N.2     1  UNL1       -0.0332
@<TRIPOS>BOND
     1    12    13   ar
     2    13    14   ar
     3    14    15   ar
     4    15    16   ar
     5    16    17   ar
     6    17     7    1
     7     7     8   ar
     8     8     9   ar
     9     9    10   ar
    10    10     1    1
    11     1     2    1
    12     2     3    1
    13     3     4    1
    14     4    21    1
    15    21    22    1
    16    22    23    2
    17    23    24    1
    18    24    25    2
    19    25    26    1
    20    26    27    2
    21    27    28    1
    22    28    29    1
    23    29    30    2
    24     4     5    1
    25     5     6    1
    26    10    11   ar
    27    17    18   ar
    28    18    19   ar
    29    19    20   ar
    30    20    12   ar
    31    19    15   ar
    32    11     7   ar
    33     6     1    1
    34    30    22    1
    35    29    24    1
@<TRIPOS>MOLECULE
*****
 30 35 0 0 0
SMALL
GASTEIGER

@<TRIPOS>ATOM
      1 C         139.7691  138.5061  156.7399 C.3     1  UNL1        0.0493
      2 C         139.1269  137.9781  155.4914 C.3     1  UNL1        0.0238
      3 C         139.7160  136.7904  154.7895 C.3     1  UNL1        0.0730
      4 N         140.9472  136.1307  155.3363 N.3     1  UNL1       -0.2623
      5 C         141.5894  136.6587  156.5849 C.3     1  UNL1        0.0730
      6 C         141.0003  137.8464  157.2867 C.3     1  UNL1        0.0238
      7 C         138.6599  141.3471  159.1405 C.ar    1  UNL1        0.1224
      8 C         137.8873  141.6955  157.9028 C.ar    1  UNL1        0.0587
      9 S         138.2089  140.6735  156.8529 S.2     1  UNL1       -0.0701
     10 C         139.1801  139.6937  157.4417 C.ar    1  UNL1        0.0880
     11 N         139.4588  140.1101  158.8556 N.ar    1  UNL1       -0.2396
     12 C         139.1699  144.9623  164.4579 C.ar    1  UNL1        0.0002
     13 C         137.9576  144.1904  164.8874 C.ar    1  UNL1        0.0031
     14 C         137.3710  143.1497  163.9804 C.ar    1  UNL1        0.0375
     15 C         137.9966  142.8808  162.6439 C.ar    1  UNL1        0.1454
     16 O         137.6434  141.9232  161.5447 O.2     1  UNL1       -0.4520
     17 C         138.6374  142.1033  160.4358 C.ar    1  UNL1        0.1633
     18 C         139.6049  143.1722  160.8497 C.ar    1  UNL1        0.0421
     19 C         139.2089  143.6527  162.2144 C.ar    1  UNL1        0.0376
     20 C         139.7955  144.6935  163.1214 C.ar    1  UNL1        0.0031
     21 C         141.5362  134.9431  154.6345 C.3     1  UNL1        0.1978
     22 C         142.2463  133.8825  155.4224 C.2     1  UNL1        0.3718
     23 N         141.7496  132.4897  155.6738 N.2     1  UNL1        0.0124
     24 C         142.7742  131.7749  156.5040 C.2     1  UNL1        0.4184
     25 N         142.8242  130.3809  157.0555 N.2     1  UNL1       -0.0277
     26 C         144.0042  129.9379  157.8688 C.2     1  UNL1        0.2320
     27 C         145.1341  130.8890  158.1305 C.2     1  UNL1        0.0333
     28 C         145.0841  132.2831  157.5791 C.3     1  UNL1        0.1120
     29 C         143.9042  132.7260  156.7658 C.2     1  UNL1        0.2626
     30 N         143.5779  134.0285  156.0974 N.2     1  UNL1       -0.0332
@<TRIPOS>BOND
     1    12    13   ar
     2    13    14   ar
     3    14    15   ar
     4    15    16   ar
     5    16    17   ar
     6    17     7    1
     7     7     8   ar
     8     8     9   ar
     9     9    10   ar
    10    10     1    1
    11     1     2    1
    12     2     3    1
    13     3     4    1
    14     4    21    1
    15    21    22    1
    16    22    23    2
    17    23    24    1
    18    24    25    2
    19    25    26    1
    20    26    27    2
    21    27    28    1
    22    28    29    1
    23    29    30    2
    24     4     5    1
    25     5     6    1
    26    10    11   ar
    27    17    18   ar
    28    18    19   ar
    29    19    20   ar
    30    20    12   ar
    31    19    15   ar
    32    11     7   ar
    33     6     1    1
    34    30    22    1
    35    29    24    1
@<TRIPOS>MOLECULE
*****
 30 35 0 0 0
SMALL
GASTEIGER

@<TRIPOS>ATOM
      1 C         140.8804  144.2762  159.1816 C.3     1  UNL1        0.0493
      2 C         141.6671  145.4291  158.6321 C.3     1  UNL1        0.0238
      3 C         141.3659  145.9568  157.2606 C.3     1  UNL1        0.0730
      4 N         140.2781  145.3314  156.4386 N.3     1  UNL1       -0.2623
      5 C         139.4914  144.1784  156.9882 C.3     1  UNL1        0.0730
      6 C         139.7926  143.6508  158.3596 C.3     1  UNL1        0.0238
      7 C         140.9560  142.6432  162.7019 C.ar    1  UNL1        0.1224
      8 C         142.3343  143.2301  162.6251 C.ar    1  UNL1        0.0587
      9 S         142.4737  143.9132  161.2969 S.2     1  UNL1       -0.0701
     10 C         141.1816  143.7486  160.5530 C.ar    1  UNL1        0.0880
     11 N         140.2436  142.9636  161.4215 N.ar    1  UNL1       -0.2396
     12 C         138.9850  139.7213  168.1039 C.ar    1  UNL1        0.0002
     13 C         138.0880  138.9725  167.1634 C.ar    1  UNL1        0.0031
     14 C         138.1301  139.2665  165.6931 C.ar    1  UNL1        0.0375
     15 C         139.0692  140.3093  165.1633 C.ar    1  UNL1        0.1454
     16 O         139.3308  140.8120  163.7745 O.2     1  UNL1       -0.4520
     17 C         140.3895  141.8714  163.8567 C.ar    1  UNL1        0.1633
     18 C         140.7822  142.0235  165.2963 C.ar    1  UNL1        0.0421
     19 C         139.9662  141.0580  166.1039 C.ar    1  UNL1        0.0376
     20 C         139.9241  140.7640  167.5742 C.ar    1  UNL1        0.0031
     21 C         139.9769  145.8590  155.0672 C.3     1  UNL1        0.1978
     22 C         139.7249  147.3239  154.8658 C.2     1  UNL1        0.3718
     23 N         138.8851  148.2031  155.7444 N.2     1  UNL1        0.0124
     24 C         138.9097  149.5894  155.1720 C.2     1  UNL1        0.4184
     25 N         138.2640  150.8692  155.6138 N.2     1  UNL1       -0.0277
     26 C         138.4733  152.1267  154.8232 C.2     1  UNL1        0.2320
     27 C         139.3282  152.1043  153.5910 C.2     1  UNL1        0.0333
     28 C         139.9738  150.8244  153.1492 C.3     1  UNL1        0.1120
     29 C         139.7646  149.5670  153.9397 C.2     1  UNL1        0.2626
     30 N         140.2684  148.1669  153.7505 N.2     1  UNL1       -0.0332
@<TRIPOS>BOND
     1    12    13   ar
     2    13    14   ar
     3    14    15   ar
     4    15    16   ar
     5    16    17   ar
     6    17     7    1
     7     7     8   ar
     8     8     9   ar
     9     9    10   ar
    10    10     1    1
    11     1     2    1
    12     2     3    1
    13     3     4    1
    14     4    21    1
    15    21    22    1
    16    22    23    2
    17    23    24    1
    18    24    25    2
    19    25    26    1
    20    26    27    2
    21    27    28    1
    22    28    29    1
    23    29    30    2
    24     4     5    1
    25     5     6    1
    26    10    11   ar
    27    17    18   ar
    28    18    19   ar
    29    19    20   ar
    30    20    12   ar
    31    19    15   ar
    32    11     7   ar
    33     6     1    1
    34    30    22    1
    35    29    24    1
