@<TRIPOS>MOLECULE
*****
 39 43 0 0 0
SMALL
GASTEIGER

@<TRIPOS>ATOM
      1 C         141.4554  142.2181  164.2792 C.3     1  UNL1        0.0791
      2 C         142.9258  143.1486  162.3500 C.ar    1  UNL1        0.1351
      3 C         143.5674  142.9742  161.0054 C.ar    1  UNL1        0.0366
      4 C         143.3802  141.6945  160.2454 C.ar    1  UNL1        0.0030
      5 C         144.0218  141.5200  158.9009 C.ar    1  UNL1        0.0008
      6 C         143.8346  140.2405  158.1409 C.ar    1  UNL1        0.0103
      7 C         143.0058  139.1353  158.7255 C.ar    1  UNL1        0.0684
      8 C         142.3642  139.3098  160.0701 C.ar    1  UNL1        0.0103
      9 C         142.5514  140.5894  160.8300 C.ar    1  UNL1        0.0006
     10 C         141.9098  140.7639  162.1747 C.ar    1  UNL1       -0.0009
     11 C         142.0970  142.0435  162.9346 C.ar    1  UNL1        0.0182
     12 C         142.0700  145.5037  163.0364 C.3     1  UNL1        0.2525
     13 O         143.1130  144.4283  163.1100 O.3     1  UNL1       -0.4717
     14 C         142.8186  137.8557  157.9655 C.1     1  UNL1        0.1004
     15 N         142.6314  136.5761  157.2056 N.1     1  UNL1       -0.1908
     16 C         140.0973  142.8458  164.3864 C.ar    1  UNL1       -0.0134
     17 C         138.9745  142.3566  163.5204 C.ar    1  UNL1       -0.0037
     18 C         137.6164  142.9843  163.6276 C.ar    1  UNL1        0.0020
     19 C         137.3811  144.1013  164.6006 C.ar    1  UNL1        0.0296
     20 C         138.5039  144.5906  165.4666 C.ar    1  UNL1        0.1398
     21 F         138.2686  145.7076  166.4397 F       1  UNL1       -0.2042
     22 C         139.8620  143.9629  165.3595 C.ar    1  UNL1        0.0258
     23 C         142.1719  141.7648  165.5166 C.3     1  UNL1        0.1474
     24 O         143.2374  142.7928  165.2762 O.3     1  UNL1       -0.3789
     25 H         143.8091  142.5018  164.5485 H       1  UNL1        0.2108
     26 C         141.1063  140.7369  165.7571 C.ar    1  UNL1        0.1474
     27 C         140.0629  140.7838  166.8337 C.ar    1  UNL1        0.0384
     28 C         139.2088  139.5573  166.7050 C.ar    1  UNL1        0.0373
     29 C         138.0282  139.0694  167.4913 C.ar    1  UNL1        0.0031
     30 C         137.3632  137.7767  167.1216 C.ar    1  UNL1        0.0002
     31 C         137.8788  136.9719  165.9655 C.ar    1  UNL1        0.0031
     32 C         139.0594  137.4598  165.1793 C.ar    1  UNL1        0.0375
     33 C         139.7244  138.7525  165.5490 C.ar    1  UNL1        0.1449
     34 O         140.8971  139.4814  164.9631 O.2     1  UNL1       -0.4554
     35 C         142.8884  141.3116  166.7540 C.3     1  UNL1        0.0522
     36 C         143.1682  142.2873  167.8585 C.3     1  UNL1        0.0751
     37 N         142.8666  141.9171  169.2805 N.3     1  UNL1       -0.2702
     38 C         142.7355  142.9881  170.3225 C.3     1  UNL1        0.0897
     39 C         142.6960  140.4761  169.6604 C.3     1  UNL1        0.0897
@<TRIPOS>BOND
     1    12    13    1
     2    13     2    1
     3     2     3   ar
     4     3     4   ar
     5     4     5   ar
     6     5     6   ar
     7     6     7   ar
     8     7    14    1
     9    14    15    3
    10     7     8   ar
    11     8     9   ar
    12     9    10   ar
    13    10    11   ar
    14     1    11    1
    15     1    16    1
    16    16    17   ar
    17    17    18   ar
    18    18    19   ar
    19    19    20   ar
    20    20    21    1
    21    20    22   ar
    22     1    23    1
    23    23    24    1
    24    23    35    1
    25    35    36    1
    26    36    37    1
    27    37    38    1
    28    37    39    1
    29    23    26    1
    30    26    27   ar
    31    27    28   ar
    32    28    29   ar
    33    29    30   ar
    34    30    31   ar
    35    31    32   ar
    36    32    33   ar
    37    33    34   ar
    38    11     2   ar
    39    22    16   ar
    40    34    26   ar
    41     9     4   ar
    42    33    28   ar
    43    24    25    1
@<TRIPOS>MOLECULE
*****
 39 43 0 0 0
SMALL
GASTEIGER

@<TRIPOS>ATOM
      1 C         141.3268  143.0238  163.3872 C.3     1  UNL1        0.0791
      2 C         141.5125  144.5132  161.2665 C.ar    1  UNL1        0.1351
      3 C         141.8925  144.6794  159.8250 C.ar    1  UNL1        0.0366
      4 C         142.4668  143.5223  159.0625 C.ar    1  UNL1        0.0030
      5 C         142.8468  143.6885  157.6210 C.ar    1  UNL1        0.0008
      6 C         143.4210  142.5314  156.8586 C.ar    1  UNL1        0.0103
      7 C         143.6153  141.2081  157.5377 C.ar    1  UNL1        0.0684
      8 C         143.2353  141.0419  158.9792 C.ar    1  UNL1        0.0103
      9 C         142.6611  142.1990  159.7416 C.ar    1  UNL1        0.0006
     10 C         142.2811  142.0328  161.1832 C.ar    1  UNL1       -0.0009
     11 C         141.7068  143.1899  161.9456 C.ar    1  UNL1        0.0182
     12 C         139.6469  146.2927  161.5874 C.3     1  UNL1        0.2525
     13 O         140.9383  145.6704  162.0290 O.3     1  UNL1       -0.4717
     14 C         144.1896  140.0510  156.7752 C.1     1  UNL1        0.1004
     15 N         144.7638  138.8940  156.0127 N.1     1  UNL1       -0.1908
     16 C         139.9444  143.3836  163.8446 C.ar    1  UNL1       -0.0134
     17 C         138.7509  142.7391  163.2042 C.ar    1  UNL1       -0.0037
     18 C         137.3684  143.0990  163.6617 C.ar    1  UNL1        0.0020
     19 C         137.1794  144.1034  164.7596 C.ar    1  UNL1        0.0296
     20 C         138.3729  144.7480  165.4001 C.ar    1  UNL1        0.1398
     21 F         138.1839  145.7524  166.4979 F       1  UNL1       -0.2042
     22 C         139.7554  144.3881  164.9426 C.ar    1  UNL1        0.0258
     23 C         142.3293  142.4977  164.3712 C.3     1  UNL1        0.1474
     24 O         143.2690  143.6089  164.0079 O.3     1  UNL1       -0.3789
     25 H         143.6657  143.4267  163.1417 H       1  UNL1        0.2108
     26 C         141.3895  141.3865  164.7345 C.ar    1  UNL1        0.1474
     27 C         140.6082  141.2742  166.0101 C.ar    1  UNL1        0.0384
     28 C         139.8019  140.0107  165.9499 C.ar    1  UNL1        0.0373
     29 C         138.8465  139.3826  166.9209 C.ar    1  UNL1        0.0031
     30 C         138.1741  138.0860  166.5792 C.ar    1  UNL1        0.0002
     31 C         138.4571  137.4175  165.2665 C.ar    1  UNL1        0.0031
     32 C         139.4124  138.0456  164.2956 C.ar    1  UNL1        0.0375
     33 C         140.0848  139.3422  164.6373 C.ar    1  UNL1        0.1449
     34 O         141.0660  140.1925  163.8861 O.2     1  UNL1       -0.4554
     35 C         143.3317  141.9717  165.3552 C.3     1  UNL1        0.0522
     36 C         144.1726  140.7800  165.0049 C.3     1  UNL1        0.0751
     37 N         144.8027  140.6798  163.6472 N.3     1  UNL1       -0.2702
     38 C         145.8411  141.6772  163.2269 C.3     1  UNL1        0.0897
     39 C         144.3943  139.5821  162.7101 C.3     1  UNL1        0.0897
@<TRIPOS>BOND
     1    12    13    1
     2    13     2    1
     3     2     3   ar
     4     3     4   ar
     5     4     5   ar
     6     5     6   ar
     7     6     7   ar
     8     7    14    1
     9    14    15    3
    10     7     8   ar
    11     8     9   ar
    12     9    10   ar
    13    10    11   ar
    14     1    11    1
    15     1    16    1
    16    16    17   ar
    17    17    18   ar
    18    18    19   ar
    19    19    20   ar
    20    20    21    1
    21    20    22   ar
    22     1    23    1
    23    23    24    1
    24    23    35    1
    25    35    36    1
    26    36    37    1
    27    37    38    1
    28    37    39    1
    29    23    26    1
    30    26    27   ar
    31    27    28   ar
    32    28    29   ar
    33    29    30   ar
    34    30    31   ar
    35    31    32   ar
    36    32    33   ar
    37    33    34   ar
    38    11     2   ar
    39    22    16   ar
    40    34    26   ar
    41     9     4   ar
    42    33    28   ar
    43    24    25    1
@<TRIPOS>MOLECULE
*****
 39 43 0 0 0
SMALL
GASTEIGER

@<TRIPOS>ATOM
      1 C         141.1407  139.8592  165.1342 C.3     1  UNL1        0.0791
      2 C         142.8949  138.9760  163.4334 C.ar    1  UNL1        0.1351
      3 C         143.2808  138.6336  162.0249 C.ar    1  UNL1        0.0366
      4 C         142.2986  138.8321  160.9087 C.ar    1  UNL1        0.0030
      5 C         142.6845  138.4897  159.5003 C.ar    1  UNL1        0.0008
      6 C         141.7023  138.6882  158.3842 C.ar    1  UNL1        0.0103
      7 C         140.3341  139.2290  158.6765 C.ar    1  UNL1        0.0684
      8 C         139.9481  139.5714  160.0849 C.ar    1  UNL1        0.0103
      9 C         140.9303  139.3729  161.2010 C.ar    1  UNL1        0.0006
     10 C         140.5444  139.7153  162.6096 C.ar    1  UNL1       -0.0009
     11 C         141.5266  139.5168  163.7257 C.ar    1  UNL1        0.0182
     12 C         145.1851  139.5118  164.5370 C.3     1  UNL1        0.2525
     13 O         143.8771  138.7775  164.5496 O.3     1  UNL1       -0.4717
     14 C         139.3518  139.4275  157.5603 C.1     1  UNL1        0.1004
     15 N         138.3696  139.6260  156.4441 N.1     1  UNL1       -0.1908
     16 C         139.9604  139.1887  165.7725 C.ar    1  UNL1       -0.0134
     17 C         139.3298  137.9963  165.1164 C.ar    1  UNL1       -0.0037
     18 C         138.1495  137.3258  165.7547 C.ar    1  UNL1        0.0020
     19 C         137.5999  137.8476  167.0491 C.ar    1  UNL1        0.0296
     20 C         138.2305  139.0401  167.7052 C.ar    1  UNL1        0.1398
     21 F         137.6808  139.5619  168.9996 F       1  UNL1       -0.2042
     22 C         139.4108  139.7106  167.0670 C.ar    1  UNL1        0.0258
     23 C         141.9350  140.8720  165.9044 C.3     1  UNL1        0.1474
     24 O         142.4632  139.7835  166.7910 O.3     1  UNL1       -0.3789
     25 H         141.7692  139.5040  167.4084 H       1  UNL1        0.2108
     26 C         141.4067  141.9605  165.0178 C.ar    1  UNL1        0.1474
     27 C         142.2103  142.7760  164.0486 C.ar    1  UNL1        0.0384
     28 C         141.2822  143.7441  163.3765 C.ar    1  UNL1        0.0373
     29 C         141.5133  144.7954  162.3318 C.ar    1  UNL1        0.0031
     30 C         140.3673  145.6295  161.8408 C.ar    1  UNL1        0.0002
     31 C         138.9902  145.4122  162.3946 C.ar    1  UNL1        0.0031
     32 C         138.7592  144.3610  163.4393 C.ar    1  UNL1        0.0375
     33 C         139.9052  143.5269  163.9303 C.ar    1  UNL1        0.1449
     34 O         139.9821  142.4246  164.9446 O.2     1  UNL1       -0.4554
     35 C         142.7293  141.8848  166.6746 C.3     1  UNL1        0.0522
     36 C         142.9352  141.7119  168.1503 C.3     1  UNL1        0.0751
     37 N         141.8923  142.1941  169.1147 N.3     1  UNL1       -0.2702
     38 C         142.0884  142.0018  170.5893 C.3     1  UNL1        0.0897
     39 C         140.6535  142.8685  168.6044 C.3     1  UNL1        0.0897
@<TRIPOS>BOND
     1    12    13    1
     2    13     2    1
     3     2     3   ar
     4     3     4   ar
     5     4     5   ar
     6     5     6   ar
     7     6     7   ar
     8     7    14    1
     9    14    15    3
    10     7     8   ar
    11     8     9   ar
    12     9    10   ar
    13    10    11   ar
    14     1    11    1
    15     1    16    1
    16    16    17   ar
    17    17    18   ar
    18    18    19   ar
    19    19    20   ar
    20    20    21    1
    21    20    22   ar
    22     1    23    1
    23    23    24    1
    24    23    35    1
    25    35    36    1
    26    36    37    1
    27    37    38    1
    28    37    39    1
    29    23    26    1
    30    26    27   ar
    31    27    28   ar
    32    28    29   ar
    33    29    30   ar
    34    30    31   ar
    35    31    32   ar
    36    32    33   ar
    37    33    34   ar
    38    11     2   ar
    39    22    16   ar
    40    34    26   ar
    41     9     4   ar
    42    33    28   ar
    43    24    25    1
@<TRIPOS>MOLECULE
*****
 39 43 0 0 0
SMALL
GASTEIGER

@<TRIPOS>ATOM
      1 C         141.6194  142.4187  164.3234 C.3     1  UNL1        0.0791
      2 C         143.5214  141.4750  162.8261 C.ar    1  UNL1        0.1351
      3 C         144.2275  141.4197  161.5039 C.ar    1  UNL1        0.0366
      4 C         143.7378  142.2528  160.3566 C.ar    1  UNL1        0.0030
      5 C         144.4439  142.1974  159.0344 C.ar    1  UNL1        0.0008
      6 C         143.9542  143.0305  157.8872 C.ar    1  UNL1        0.0103
      7 C         142.7584  143.9189  158.0622 C.ar    1  UNL1        0.0684
      8 C         142.0522  143.9743  159.3844 C.ar    1  UNL1        0.0103
      9 C         142.5419  143.1412  160.5316 C.ar    1  UNL1        0.0006
     10 C         141.8358  143.1965  161.8539 C.ar    1  UNL1       -0.0009
     11 C         142.3255  142.3634  163.0011 C.ar    1  UNL1        0.0182
     12 C         144.3967  139.2097  163.7493 C.3     1  UNL1        0.2525
     13 O         144.0111  140.6419  163.9734 O.3     1  UNL1       -0.4717
     14 C         142.2687  144.7521  156.9149 C.1     1  UNL1        0.1004
     15 N         141.7790  145.5851  155.7677 N.1     1  UNL1       -0.1908
     16 C         140.2181  142.9478  164.4037 C.ar    1  UNL1       -0.0134
     17 C         139.1356  142.3343  163.5659 C.ar    1  UNL1       -0.0037
     18 C         137.7343  142.8633  163.6462 C.ar    1  UNL1        0.0020
     19 C         137.4154  144.0058  164.5643 C.ar    1  UNL1        0.0296
     20 C         138.4979  144.6194  165.4022 C.ar    1  UNL1        0.1398
     21 F         138.1790  145.7619  166.3203 F       1  UNL1       -0.2042
     22 C         139.8992  144.0903  165.3218 C.ar    1  UNL1        0.0258
     23 C         142.3145  141.9450  165.5652 C.3     1  UNL1        0.1474
     24 O         143.3660  142.9983  165.3784 O.3     1  UNL1       -0.3789
     25 H         143.9602  142.7376  164.6574 H       1  UNL1        0.2108
     26 C         141.2630  140.8918  165.7521 C.ar    1  UNL1        0.1474
     27 C         140.2124  140.8750  166.8225 C.ar    1  UNL1        0.0384
     28 C         139.3776  139.6431  166.6332 C.ar    1  UNL1        0.0373
     29 C         138.1995  139.1032  167.3888 C.ar    1  UNL1        0.0031
     30 C         137.5562  137.8188  166.9569 C.ar    1  UNL1        0.0002
     31 C         138.0910  137.0743  165.7695 C.ar    1  UNL1        0.0031
     32 C         139.2690  137.6143  165.0140 C.ar    1  UNL1        0.0375
     33 C         139.9122  138.8987  165.4459 C.ar    1  UNL1        0.1449
     34 O         141.0775  139.6704  164.9013 O.2     1  UNL1       -0.4554
     35 C         143.0097  141.4713  166.8071 C.3     1  UNL1        0.0522
     36 C         143.2423  142.4207  167.9449 C.3     1  UNL1        0.0751
     37 N         142.9306  141.9980  169.3500 N.3     1  UNL1       -0.2702
     38 C         142.7400  143.0323  170.4195 C.3     1  UNL1        0.0897
     39 C         142.8097  140.5411  169.6856 C.3     1  UNL1        0.0897
@<TRIPOS>BOND
     1    12    13    1
     2    13     2    1
     3     2     3   ar
     4     3     4   ar
     5     4     5   ar
     6     5     6   ar
     7     6     7   ar
     8     7    14    1
     9    14    15    3
    10     7     8   ar
    11     8     9   ar
    12     9    10   ar
    13    10    11   ar
    14     1    11    1
    15     1    16    1
    16    16    17   ar
    17    17    18   ar
    18    18    19   ar
    19    19    20   ar
    20    20    21    1
    21    20    22   ar
    22     1    23    1
    23    23    24    1
    24    23    35    1
    25    35    36    1
    26    36    37    1
    27    37    38    1
    28    37    39    1
    29    23    26    1
    30    26    27   ar
    31    27    28   ar
    32    28    29   ar
    33    29    30   ar
    34    30    31   ar
    35    31    32   ar
    36    32    33   ar
    37    33    34   ar
    38    11     2   ar
    39    22    16   ar
    40    34    26   ar
    41     9     4   ar
    42    33    28   ar
    43    24    25    1
@<TRIPOS>MOLECULE
*****
 39 43 0 0 0
SMALL
GASTEIGER

@<TRIPOS>ATOM
      1 C         140.9490  142.2576  163.6102 C.3     1  UNL1        0.0791
      2 C         140.2566  143.1429  165.9526 C.ar    1  UNL1        0.1351
      3 C         140.2538  143.0018  167.4460 C.ar    1  UNL1        0.0366
      4 C         140.9406  141.8343  168.0903 C.ar    1  UNL1        0.0030
      5 C         140.9378  141.6932  169.5837 C.ar    1  UNL1        0.0008
      6 C         141.6247  140.5258  170.2280 C.ar    1  UNL1        0.0103
      7 C         142.3143  139.4993  169.3789 C.ar    1  UNL1        0.0684
      8 C         142.3172  139.6404  167.8856 C.ar    1  UNL1        0.0103
      9 C         141.6303  140.8079  167.2413 C.ar    1  UNL1        0.0006
     10 C         141.6331  140.9490  165.7479 C.ar    1  UNL1       -0.0009
     11 C         140.9463  142.1165  165.1036 C.ar    1  UNL1        0.0182
     12 C         138.1027  144.2423  165.0028 C.3     1  UNL1        0.2525
     13 O         139.5697  144.3104  165.3082 O.3     1  UNL1       -0.4717
     14 C         143.0012  138.3318  170.0233 C.1     1  UNL1        0.1004
     15 N         143.6880  137.1643  170.6677 N.1     1  UNL1       -0.1908
     16 C         139.7940  141.7392  162.8058 C.ar    1  UNL1       -0.0134
     17 C         139.0983  142.6380  161.8270 C.ar    1  UNL1       -0.0037
     18 C         137.9432  142.1196  161.0226 C.ar    1  UNL1        0.0020
     19 C         137.4840  140.7023  161.1968 C.ar    1  UNL1        0.0296
     20 C         138.1797  139.8034  162.1756 C.ar    1  UNL1        0.1398
     21 F         137.7205  138.3861  162.3499 F       1  UNL1       -0.2042
     22 C         139.3348  140.3218  162.9801 C.ar    1  UNL1        0.0258
     23 C         142.1068  142.9171  162.9214 C.3     1  UNL1        0.1474
     24 O         141.8984  144.1494  163.7508 O.3     1  UNL1       -0.3789
     25 H         141.1212  144.6302  163.4259 H       1  UNL1        0.2108
     26 C         142.3152  141.6848  162.0919 C.ar    1  UNL1        0.1474
     27 C         142.1971  141.5964  160.5992 C.ar    1  UNL1        0.0384
     28 C         142.4873  140.1814  160.1943 C.ar    1  UNL1        0.0373
     29 C         142.5191  139.5072  158.8547 C.ar    1  UNL1        0.0031
     30 C         142.8483  138.0470  158.7576 C.ar    1  UNL1        0.0002
     31 C         143.1457  137.2610  160.0001 C.ar    1  UNL1        0.0031
     32 C         143.1139  137.9352  161.3397 C.ar    1  UNL1        0.0375
     33 C         142.7847  139.3954  161.4368 C.ar    1  UNL1        0.1449
     34 O         142.6784  140.3245  162.6096 O.2     1  UNL1       -0.4554
     35 C         143.2646  143.5766  162.2325 C.3     1  UNL1        0.0522
     36 C         144.5753  143.7270  162.9463 C.3     1  UNL1        0.0751
     37 N         144.8705  142.8912  164.1565 N.3     1  UNL1       -0.2702
     38 C         144.4705  143.3761  165.5184 C.3     1  UNL1        0.0897
     39 C         145.5656  141.5707  164.0047 C.3     1  UNL1        0.0897
@<TRIPOS>BOND
     1    12    13    1
     2    13     2    1
     3     2     3   ar
     4     3     4   ar
     5     4     5   ar
     6     5     6   ar
     7     6     7   ar
     8     7    14    1
     9    14    15    3
    10     7     8   ar
    11     8     9   ar
    12     9    10   ar
    13    10    11   ar
    14     1    11    1
    15     1    16    1
    16    16    17   ar
    17    17    18   ar
    18    18    19   ar
    19    19    20   ar
    20    20    21    1
    21    20    22   ar
    22     1    23    1
    23    23    24    1
    24    23    35    1
    25    35    36    1
    26    36    37    1
    27    37    38    1
    28    37    39    1
    29    23    26    1
    30    26    27   ar
    31    27    28   ar
    32    28    29   ar
    33    29    30   ar
    34    30    31   ar
    35    31    32   ar
    36    32    33   ar
    37    33    34   ar
    38    11     2   ar
    39    22    16   ar
    40    34    26   ar
    41     9     4   ar
    42    33    28   ar
    43    24    25    1
@<TRIPOS>MOLECULE
*****
 39 43 0 0 0
SMALL
GASTEIGER

@<TRIPOS>ATOM
      1 C         140.3830  141.6927  159.4029 C.3     1  UNL1        0.0791
      2 C         141.8630  139.7751  160.3423 C.ar    1  UNL1        0.1351
      3 C         142.1218  138.7231  161.3798 C.ar    1  UNL1        0.0366
      4 C         141.1596  138.5367  162.5153 C.ar    1  UNL1        0.0030
      5 C         141.4185  137.4848  163.5528 C.ar    1  UNL1        0.0008
      6 C         140.4563  137.2985  164.6883 C.ar    1  UNL1        0.0103
      7 C         139.2352  138.1641  164.7863 C.ar    1  UNL1        0.0684
      8 C         138.9763  139.2161  163.7489 C.ar    1  UNL1        0.0103
      9 C         139.9385  139.4024  162.6134 C.ar    1  UNL1        0.0006
     10 C         139.6797  140.4544  161.5759 C.ar    1  UNL1       -0.0009
     11 C         140.6419  140.6407  160.4404 C.ar    1  UNL1        0.0182
     12 C         142.7573  139.0591  158.0104 C.3     1  UNL1        0.2525
     13 O         142.8252  139.9614  159.2068 O.3     1  UNL1       -0.4717
     14 C         138.2729  137.9777  165.9219 C.1     1  UNL1        0.1004
     15 N         137.3108  137.7914  167.0574 N.1     1  UNL1       -0.1908
     16 C         139.3575  141.4558  158.3342 C.ar    1  UNL1       -0.0134
     17 C         139.1966  140.0883  157.7391 C.ar    1  UNL1       -0.0037
     18 C         138.1711  139.8514  156.6704 C.ar    1  UNL1        0.0020
     19 C         137.3065  140.9819  156.1967 C.ar    1  UNL1        0.0296
     20 C         137.4674  142.3494  156.7917 C.ar    1  UNL1        0.1398
     21 F         136.6029  143.4799  156.3181 F       1  UNL1       -0.2042
     22 C         138.4929  142.5864  157.8605 C.ar    1  UNL1        0.0258
     23 C         141.1497  142.9816  159.4342 C.3     1  UNL1        0.1474
     24 O         141.7791  142.6392  158.1164 O.3     1  UNL1       -0.3789
     25 H         142.4546  141.9557  158.2486 H       1  UNL1        0.2108
     26 C         140.5203  143.3240  160.7519 C.ar    1  UNL1        0.1474
     27 C         141.2385  143.4699  162.0607 C.ar    1  UNL1        0.0384
     28 C         140.2241  143.8168  163.1099 C.ar    1  UNL1        0.0373
     29 C         140.3516  144.0791  164.5813 C.ar    1  UNL1        0.0031
     30 C         139.1339  144.4099  165.3924 C.ar    1  UNL1        0.0002
     31 C         137.7887  144.4783  164.7321 C.ar    1  UNL1        0.0031
     32 C         137.6613  144.2160  163.2607 C.ar    1  UNL1        0.0375
     33 C         138.8790  143.8852  162.4496 C.ar    1  UNL1        0.1449
     34 O         139.0620  143.5807  160.9923 O.2     1  UNL1       -0.4554
     35 C         141.9163  144.2705  159.4654 C.3     1  UNL1        0.0522
     36 C         141.2813  145.5332  158.9633 C.3     1  UNL1        0.0751
     37 N         141.0987  145.7464  157.4898 N.3     1  UNL1       -0.2702
     38 C         139.7681  146.1863  156.9548 C.3     1  UNL1        0.0897
     39 C         142.2466  145.5197  156.5513 C.3     1  UNL1        0.0897
@<TRIPOS>BOND
     1    12    13    1
     2    13     2    1
     3     2     3   ar
     4     3     4   ar
     5     4     5   ar
     6     5     6   ar
     7     6     7   ar
     8     7    14    1
     9    14    15    3
    10     7     8   ar
    11     8     9   ar
    12     9    10   ar
    13    10    11   ar
    14     1    11    1
    15     1    16    1
    16    16    17   ar
    17    17    18   ar
    18    18    19   ar
    19    19    20   ar
    20    20    21    1
    21    20    22   ar
    22     1    23    1
    23    23    24    1
    24    23    35    1
    25    35    36    1
    26    36    37    1
    27    37    38    1
    28    37    39    1
    29    23    26    1
    30    26    27   ar
    31    27    28   ar
    32    28    29   ar
    33    29    30   ar
    34    30    31   ar
    35    31    32   ar
    36    32    33   ar
    37    33    34   ar
    38    11     2   ar
    39    22    16   ar
    40    34    26   ar
    41     9     4   ar
    42    33    28   ar
    43    24    25    1
@<TRIPOS>MOLECULE
*****
 39 43 0 0 0
SMALL
GASTEIGER

@<TRIPOS>ATOM
      1 C         141.1086  142.5944  158.9893 C.3     1  UNL1        0.0791
      2 C         143.6050  142.6464  159.7072 C.ar    1  UNL1        0.1351
      3 C         144.6747  142.3340  160.7112 C.ar    1  UNL1        0.0366
      4 C         144.3178  141.6571  162.0014 C.ar    1  UNL1        0.0030
      5 C         145.3875  141.3447  163.0054 C.ar    1  UNL1        0.0008
      6 C         145.0306  140.6679  164.2955 C.ar    1  UNL1        0.0103
      7 C         143.6040  140.3035  164.5817 C.ar    1  UNL1        0.0684
      8 C         142.5342  140.6159  163.5777 C.ar    1  UNL1        0.0103
      9 C         142.8912  141.2927  162.2876 C.ar    1  UNL1        0.0006
     10 C         141.8214  141.6052  161.2835 C.ar    1  UNL1       -0.0009
     11 C         142.1783  142.2820  159.9934 C.ar    1  UNL1        0.0182
     12 C         144.4785  142.5149  157.2639 C.3     1  UNL1        0.2525
     13 O         143.9619  143.3232  158.4170 O.3     1  UNL1       -0.4717
     14 C         143.2471  139.6266  165.8719 C.1     1  UNL1        0.1004
     15 N         142.8902  138.9498  167.1621 N.1     1  UNL1       -0.1908
     16 C         140.4493  141.4843  158.2259 C.ar    1  UNL1       -0.0134
     17 C         141.2436  140.2785  157.8197 C.ar    1  UNL1       -0.0037
     18 C         140.5843  139.1683  157.0563 C.ar    1  UNL1        0.0020
     19 C         139.1307  139.2640  156.6989 C.ar    1  UNL1        0.0296
     20 C         138.3362  140.4698  157.1050 C.ar    1  UNL1        0.1398
     21 F         136.8826  140.5655  156.7477 F       1  UNL1       -0.2042
     22 C         138.9955  141.5800  157.8685 C.ar    1  UNL1        0.0258
     23 C         140.6982  144.0170  158.7488 C.3     1  UNL1        0.1474
     24 O         141.2336  143.9349  157.3500 O.3     1  UNL1       -0.3789
     25 H         142.2029  143.9661  157.3725 H       1  UNL1        0.2108
     26 C         140.1627  144.0990  160.1475 C.ar    1  UNL1        0.1474
     27 C         140.7924  144.8382  161.2908 C.ar    1  UNL1        0.0384
     28 C         139.9223  144.6522  162.4984 C.ar    1  UNL1        0.0373
     29 C         140.0423  145.1504  163.9082 C.ar    1  UNL1        0.0031
     30 C         138.9948  144.7944  164.9212 C.ar    1  UNL1        0.0002
     31 C         137.8273  143.9402  164.5242 C.ar    1  UNL1        0.0031
     32 C         137.7073  143.4421  163.1145 C.ar    1  UNL1        0.0375
     33 C         138.7548  143.7981  162.1016 C.ar    1  UNL1        0.1449
     34 O         138.9034  143.4562  160.6486 O.2     1  UNL1       -0.4554
     35 C         140.2878  145.4395  158.5082 C.3     1  UNL1        0.0522
     36 C         140.6835  146.1295  157.2365 C.3     1  UNL1        0.0751
     37 N         139.6308  146.5661  156.2612 N.3     1  UNL1       -0.2702
     38 C         139.3172  145.7162  155.0657 C.3     1  UNL1        0.0897
     39 C         138.8917  147.8527  156.4814 C.3     1  UNL1        0.0897
@<TRIPOS>BOND
     1    12    13    1
     2    13     2    1
     3     2     3   ar
     4     3     4   ar
     5     4     5   ar
     6     5     6   ar
     7     6     7   ar
     8     7    14    1
     9    14    15    3
    10     7     8   ar
    11     8     9   ar
    12     9    10   ar
    13    10    11   ar
    14     1    11    1
    15     1    16    1
    16    16    17   ar
    17    17    18   ar
    18    18    19   ar
    19    19    20   ar
    20    20    21    1
    21    20    22   ar
    22     1    23    1
    23    23    24    1
    24    23    35    1
    25    35    36    1
    26    36    37    1
    27    37    38    1
    28    37    39    1
    29    23    26    1
    30    26    27   ar
    31    27    28   ar
    32    28    29   ar
    33    29    30   ar
    34    30    31   ar
    35    31    32   ar
    36    32    33   ar
    37    33    34   ar
    38    11     2   ar
    39    22    16   ar
    40    34    26   ar
    41     9     4   ar
    42    33    28   ar
    43    24    25    1
@<TRIPOS>MOLECULE
*****
 39 43 0 0 0
SMALL
GASTEIGER

@<TRIPOS>ATOM
      1 C         139.4687  141.4258  162.9101 C.3     1  UNL1        0.0791
      2 C         139.2342  140.4417  160.5171 C.ar    1  UNL1        0.1351
      3 C         139.8025  140.2012  159.1499 C.ar    1  UNL1        0.0366
      4 C         141.1738  140.7043  158.8086 C.ar    1  UNL1        0.0030
      5 C         141.7422  140.4637  157.4415 C.ar    1  UNL1        0.0008
      6 C         143.1134  140.9668  157.1002 C.ar    1  UNL1        0.0103
      7 C         143.9164  141.7104  158.1260 C.ar    1  UNL1        0.0684
      8 C         143.3480  141.9509  159.4932 C.ar    1  UNL1        0.0103
      9 C         141.9768  141.4479  159.8344 C.ar    1  UNL1        0.0006
     10 C         141.4084  141.6884  161.2016 C.ar    1  UNL1       -0.0009
     11 C         140.0371  141.1853  161.5429 C.ar    1  UNL1        0.0182
     12 C         137.6821  138.5379  161.3635 C.3     1  UNL1        0.2525
     13 O         137.8628  139.9387  160.8584 O.3     1  UNL1       -0.4717
     14 C         145.2877  142.2134  157.7847 C.1     1  UNL1        0.1004
     15 N         146.6590  142.7164  157.4434 N.1     1  UNL1       -0.1908
     16 C         139.3198  140.2844  163.8719 C.ar    1  UNL1       -0.0134
     17 C         138.1382  140.2302  164.7943 C.ar    1  UNL1       -0.0037
     18 C         137.9893  139.0888  165.7561 C.ar    1  UNL1        0.0020
     19 C         139.0219  138.0016  165.7954 C.ar    1  UNL1        0.0296
     20 C         140.2036  138.0557  164.8728 C.ar    1  UNL1        0.1398
     21 F         141.2362  136.9685  164.9121 F       1  UNL1       -0.2042
     22 C         140.3525  139.1971  163.9111 C.ar    1  UNL1        0.0258
     23 C         139.0492  142.8077  163.3155 C.3     1  UNL1        0.1474
     24 O         138.1828  142.9028  162.0948 O.3     1  UNL1       -0.3789
     25 H         138.7398  143.0416  161.3129 H       1  UNL1        0.2108
     26 C         139.9157  142.7127  164.5362 C.ar    1  UNL1        0.1474
     27 C         139.4619  142.8870  165.9552 C.ar    1  UNL1        0.0384
     28 C         140.6540  142.7086  166.8482 C.ar    1  UNL1        0.0373
     29 C         140.8091  142.7686  168.3390 C.ar    1  UNL1        0.0031
     30 C         142.1547  142.5439  168.9626 C.ar    1  UNL1        0.0002
     31 C         143.3452  142.2593  168.0954 C.ar    1  UNL1        0.0031
     32 C         143.1900  142.1993  166.6047 C.ar    1  UNL1        0.0375
     33 C         141.8444  142.4240  165.9811 C.ar    1  UNL1        0.1449
     34 O         141.3881  142.4265  164.5522 O.2     1  UNL1       -0.4554
     35 C         138.6298  144.1896  163.7208 C.3     1  UNL1        0.0522
     36 C         138.9702  145.3625  162.8500 C.3     1  UNL1        0.0751
     37 N         140.2999  145.4222  162.1583 N.3     1  UNL1       -0.2702
     38 C         140.3667  145.4169  160.6598 C.3     1  UNL1        0.0897
     39 C         141.5628  145.4870  162.9650 C.3     1  UNL1        0.0897
@<TRIPOS>BOND
     1    12    13    1
     2    13     2    1
     3     2     3   ar
     4     3     4   ar
     5     4     5   ar
     6     5     6   ar
     7     6     7   ar
     8     7    14    1
     9    14    15    3
    10     7     8   ar
    11     8     9   ar
    12     9    10   ar
    13    10    11   ar
    14     1    11    1
    15     1    16    1
    16    16    17   ar
    17    17    18   ar
    18    18    19   ar
    19    19    20   ar
    20    20    21    1
    21    20    22   ar
    22     1    23    1
    23    23    24    1
    24    23    35    1
    25    35    36    1
    26    36    37    1
    27    37    38    1
    28    37    39    1
    29    23    26    1
    30    26    27   ar
    31    27    28   ar
    32    28    29   ar
    33    29    30   ar
    34    30    31   ar
    35    31    32   ar
    36    32    33   ar
    37    33    34   ar
    38    11     2   ar
    39    22    16   ar
    40    34    26   ar
    41     9     4   ar
    42    33    28   ar
    43    24    25    1
@<TRIPOS>MOLECULE
*****
 39 43 0 0 0
SMALL
GASTEIGER

@<TRIPOS>ATOM
      1 C         140.4164  139.3916  163.3901 C.3     1  UNL1        0.0791
      2 C         138.5789  140.0040  161.6584 C.ar    1  UNL1        0.1351
      3 C         138.1033  140.8462  160.5120 C.ar    1  UNL1        0.0366
      4 C         138.9896  141.9184  159.9506 C.ar    1  UNL1        0.0030
      5 C         138.5140  142.7606  158.8041 C.ar    1  UNL1        0.0008
      6 C         139.4003  143.8326  158.2428 C.ar    1  UNL1        0.0103
      7 C         140.7622  144.0625  158.8279 C.ar    1  UNL1        0.0684
      8 C         141.2378  143.2203  159.9744 C.ar    1  UNL1        0.0103
      9 C         140.3515  142.1482  160.5357 C.ar    1  UNL1        0.0006
     10 C         140.8271  141.3060  161.6823 C.ar    1  UNL1       -0.0009
     11 C         139.9408  140.2339  162.2436 C.ar    1  UNL1        0.0182
     12 C         137.2959  137.7638  161.3666 C.3     1  UNL1        0.2525
     13 O         137.6926  138.9319  162.2198 O.3     1  UNL1       -0.4717
     14 C         141.6485  145.1346  158.2665 C.1     1  UNL1        0.1004
     15 N         142.5347  146.2067  157.7051 N.1     1  UNL1       -0.1908
     16 C         139.5142  139.1420  164.5622 C.ar    1  UNL1       -0.0134
     17 C         139.0429  140.2906  165.4039 C.ar    1  UNL1       -0.0037
     18 C         138.1407  140.0409  166.5760 C.ar    1  UNL1        0.0020
     19 C         137.7098  138.6426  166.9063 C.ar    1  UNL1        0.0296
     20 C         138.1811  137.4940  166.0645 C.ar    1  UNL1        0.1398
     21 F         137.7502  136.0957  166.3949 F       1  UNL1       -0.2042
     22 C         139.0833  137.7436  164.8925 C.ar    1  UNL1        0.0258
     23 C         141.7942  138.7991  163.3646 C.3     1  UNL1        0.1474
     24 O         141.4796  138.1239  162.0626 O.3     1  UNL1       -0.3789
     25 H         140.8962  137.3660  162.2241 H       1  UNL1        0.2108
     26 C         142.1087  139.4743  164.6665 C.ar    1  UNL1        0.1474
     27 C         142.1941  138.8076  166.0075 C.ar    1  UNL1        0.0384
     28 C         142.5313  139.8561  167.0258 C.ar    1  UNL1        0.0373
     29 C         142.7422  139.7835  168.5092 C.ar    1  UNL1        0.0031
     30 C         143.0761  141.0256  169.2810 C.ar    1  UNL1        0.0002
     31 C         143.1991  142.3404  168.5693 C.ar    1  UNL1        0.0031
     32 C         142.9882  142.4130  167.0860 C.ar    1  UNL1        0.0375
     33 C         142.6543  141.1708  166.3143 C.ar    1  UNL1        0.1449
     34 O         142.3931  140.9349  164.8562 O.2     1  UNL1       -0.4554
     35 C         143.1719  138.2065  163.3390 C.3     1  UNL1        0.0522
     36 C         144.0113  138.3131  162.1005 C.3     1  UNL1        0.0751
     37 N         144.1170  139.6225  161.3764 N.3     1  UNL1       -0.2702
     38 C         144.5973  140.8442  162.1023 C.3     1  UNL1        0.0897
     39 C         143.7425  139.7103  159.9266 C.3     1  UNL1        0.0897
@<TRIPOS>BOND
     1    12    13    1
     2    13     2    1
     3     2     3   ar
     4     3     4   ar
     5     4     5   ar
     6     5     6   ar
     7     6     7   ar
     8     7    14    1
     9    14    15    3
    10     7     8   ar
    11     8     9   ar
    12     9    10   ar
    13    10    11   ar
    14     1    11    1
    15     1    16    1
    16    16    17   ar
    17    17    18   ar
    18    18    19   ar
    19    19    20   ar
    20    20    21    1
    21    20    22   ar
    22     1    23    1
    23    23    24    1
    24    23    35    1
    25    35    36    1
    26    36    37    1
    27    37    38    1
    28    37    39    1
    29    23    26    1
    30    26    27   ar
    31    27    28   ar
    32    28    29   ar
    33    29    30   ar
    34    30    31   ar
    35    31    32   ar
    36    32    33   ar
    37    33    34   ar
    38    11     2   ar
    39    22    16   ar
    40    34    26   ar
    41     9     4   ar
    42    33    28   ar
    43    24    25    1
