@<TRIPOS>MOLECULE
*****
 38 43 0 0 0
SMALL
GASTEIGER

@<TRIPOS>ATOM
      1 C         137.8888  142.9619  163.1504 C.3     1  UNL1        0.0932
      2 C         138.0860  142.7377  161.6804 C.3     1  UNL1        0.0286
      3 C         138.0715  141.3442  161.1257 C.3     1  UNL1        0.0193
      4 C         137.8597  140.1748  162.0409 C.3     1  UNL1        0.0700
      5 C         137.6625  140.3989  163.5108 C.3     1  UNL1        0.0193
      6 C         137.6770  141.7925  164.0657 C.3     1  UNL1        0.0286
      7 C         137.8598  140.9199  162.3912 C.3     1  UNL1        0.1562
      8 O         137.8729  142.1800  162.8928 O.3     1  UNL1       -0.3572
      9 N         137.8452  138.7812  161.4861 N.3     1  UNL1       -0.2926
     10 H         137.2807  138.8082  160.6370 H       1  UNL1        0.1236
     11 C         139.1344  138.1031  161.1278 C.3     1  UNL1        0.1152
     12 C         140.3346  138.2575  162.0140 C.ar    1  UNL1        0.0765
     13 C         140.4773  137.4036  163.2390 C.ar    1  UNL1        0.0193
     14 C         141.6775  137.5579  164.1252 C.ar    1  UNL1        0.0411
     15 C         142.7352  138.5663  163.7866 C.ar    1  UNL1        0.1708
     16 C         142.5926  139.4202  162.5616 C.ar    1  UNL1        0.1682
     17 N         141.3922  139.2658  161.6753 N.ar    1  UNL1       -0.2304
     18 N         143.6502  140.4285  162.2229 N.am    1  UNL1       -0.2639
     19 C         144.8506  140.5829  163.1092 C.2     1  UNL1        0.2718
     20 O         145.9082  141.5912  162.7705 O.2     1  UNL1       -0.2707
     21 C         144.9932  139.7290  164.3341 C.3     1  UNL1        0.2898
     22 O         143.9355  138.7206  164.6728 O.3     1  UNL1       -0.4628
     23 H         143.5566  140.9889  161.4190 H       1  UNL1        0.1565
     24 C         137.9033  144.3554  163.7052 C.3     1  UNL1        0.0319
     25 C         138.8669  144.7185  164.7960 C.3     1  UNL1        0.0304
     26 C         139.6736  140.5715  168.1726 C.3     1  UNL1        0.0528
     27 C         140.5590  141.3348  167.2327 C.ar    1  UNL1        0.0690
     28 N         139.9949  142.4627  166.4204 N.ar    1  UNL1       -0.2478
     29 C         140.8804  143.2261  165.4805 C.ar    1  UNL1        0.0946
     30 C         140.3163  144.3539  164.6683 C.ar    1  UNL1       -0.0015
     31 C         141.2017  145.1173  163.7284 C.ar    1  UNL1        0.0179
     32 C         142.6511  144.7527  163.6007 C.ar    1  UNL1        0.0986
     33 N         143.2151  143.6248  164.4130 N.ar    1  UNL1       -0.2423
     34 C         142.3297  142.8615  165.3529 C.ar    1  UNL1        0.0993
     35 C         142.8938  141.7336  166.1651 C.ar    1  UNL1        0.0321
     36 C         142.0084  140.9703  167.1050 C.ar    1  UNL1        0.0835
     37 C         142.5725  139.8424  167.9172 C.1     1  UNL1        0.1017
     38 N         143.1365  138.7145  168.7295 N.1     1  UNL1       -0.1908
@<TRIPOS>BOND
     1    26    27    1
     2    27    28   ar
     3    28    29   ar
     4    29    30   ar
     5    30    25    1
     6    25    24    1
     7    24     1    1
     8     1     2    1
     9     2     3    1
    10     3     4    1
    11     4     9    1
    12     9    11    1
    13    11    12    1
    14    12    13   ar
    15    13    14   ar
    16    14    15   ar
    17    15    16   ar
    18    16    17   ar
    19    16    18    1
    20    18    19   am
    21    19    20    2
    22    19    21    1
    23    21    22    1
    24     4     5    1
    25     5     6    1
    26     4     7    1
    27     7     8    1
    28    30    31   ar
    29    31    32   ar
    30    32    33   ar
    31    33    34   ar
    32    34    35   ar
    33    35    36   ar
    34    36    37    1
    35    37    38    3
    36    36    27   ar
    37    34    29   ar
    38     6     1    1
    39     8     1    1
    40    17    12   ar
    41    22    15    1
    42     9    10    1
    43    18    23    1
@<TRIPOS>MOLECULE
*****
 38 43 0 0 0
SMALL
GASTEIGER

@<TRIPOS>ATOM
      1 C         141.8647  138.0291  164.2790 C.3     1  UNL1        0.0932
      2 C         142.8498  138.4454  165.3309 C.3     1  UNL1        0.0286
      3 C         144.0782  139.2150  164.9455 C.3     1  UNL1        0.0193
      4 C         144.3217  139.5684  163.5082 C.3     1  UNL1        0.0700
      5 C         143.3368  139.1522  162.4563 C.3     1  UNL1        0.0193
      6 C         142.1082  138.3825  162.8417 C.3     1  UNL1        0.0286
      7 C         143.6342  139.1455  163.6710 C.3     1  UNL1        0.1562
      8 O         142.5234  138.4496  164.0195 O.3     1  UNL1       -0.3572
      9 N         145.5501  140.3380  163.1229 N.3     1  UNL1       -0.2926
     10 H         145.6648  140.2246  162.1157 H       1  UNL1        0.1236
     11 C         145.6330  141.8089  163.4052 C.3     1  UNL1        0.1152
     12 C         144.4125  142.6694  163.2650 C.ar    1  UNL1        0.0765
     13 C         143.6732  143.1273  164.4872 C.ar    1  UNL1        0.0193
     14 C         142.4527  143.9879  164.3471 C.ar    1  UNL1        0.0411
     15 C         141.9713  144.3905  162.9846 C.ar    1  UNL1        0.1708
     16 C         142.7105  143.9326  161.7624 C.ar    1  UNL1        0.1682
     17 N         143.9311  143.0720  161.9026 N.ar    1  UNL1       -0.2304
     18 N         142.2292  144.3352  160.4000 N.am    1  UNL1       -0.2639
     19 C         141.0085  145.1958  160.2598 C.2     1  UNL1        0.2718
     20 O         140.5272  145.5984  158.8974 O.2     1  UNL1       -0.2707
     21 C         140.2693  145.6537  161.4820 C.3     1  UNL1        0.2898
     22 O         140.7507  145.2510  162.8444 O.3     1  UNL1       -0.4628
     23 H         142.7144  144.0347  159.5978 H       1  UNL1        0.1565
     24 C         140.6363  137.2595  164.6643 C.3     1  UNL1        0.0319
     25 C         139.3479  137.9832  164.9219 C.3     1  UNL1        0.0304
     26 C         141.0026  140.1264  169.6036 C.3     1  UNL1        0.0528
     27 C         140.5347  140.7066  168.3019 C.ar    1  UNL1        0.0690
     28 N         140.1391  139.7988  167.1752 N.ar    1  UNL1       -0.2478
     29 C         139.6712  140.3790  165.8735 C.ar    1  UNL1        0.0946
     30 C         139.2756  139.4712  164.7468 C.ar    1  UNL1       -0.0015
     31 C         138.8076  140.0514  163.4451 C.ar    1  UNL1        0.0179
     32 C         138.7353  141.5394  163.2701 C.ar    1  UNL1        0.0986
     33 N         139.1309  142.4472  164.3968 N.ar    1  UNL1       -0.2423
     34 C         139.5988  141.8670  165.6985 C.ar    1  UNL1        0.0993
     35 C         139.9944  142.7748  166.8252 C.ar    1  UNL1        0.0321
     36 C         140.4623  142.1946  168.1268 C.ar    1  UNL1        0.0835
     37 C         140.8579  143.1025  169.2535 C.1     1  UNL1        0.1017
     38 N         141.2535  144.0103  170.3802 N.1     1  UNL1       -0.1908
@<TRIPOS>BOND
     1    26    27    1
     2    27    28   ar
     3    28    29   ar
     4    29    30   ar
     5    30    25    1
     6    25    24    1
     7    24     1    1
     8     1     2    1
     9     2     3    1
    10     3     4    1
    11     4     9    1
    12     9    11    1
    13    11    12    1
    14    12    13   ar
    15    13    14   ar
    16    14    15   ar
    17    15    16   ar
    18    16    17   ar
    19    16    18    1
    20    18    19   am
    21    19    20    2
    22    19    21    1
    23    21    22    1
    24     4     5    1
    25     5     6    1
    26     4     7    1
    27     7     8    1
    28    30    31   ar
    29    31    32   ar
    30    32    33   ar
    31    33    34   ar
    32    34    35   ar
    33    35    36   ar
    34    36    37    1
    35    37    38    3
    36    36    27   ar
    37    34    29   ar
    38     6     1    1
    39     8     1    1
    40    17    12   ar
    41    22    15    1
    42     9    10    1
    43    18    23    1
@<TRIPOS>MOLECULE
*****
 38 43 0 0 0
SMALL
GASTEIGER

@<TRIPOS>ATOM
      1 C         141.7985  137.9288  164.4349 C.3     1  UNL1        0.0932
      2 C         142.0676  137.9843  162.9603 C.3     1  UNL1        0.0286
      3 C         140.9306  137.8922  161.9863 C.3     1  UNL1        0.0193
      4 C         139.5243  137.7446  162.4870 C.3     1  UNL1        0.0700
      5 C         139.2551  137.6891  163.9616 C.3     1  UNL1        0.0193
      6 C         140.3922  137.7812  164.9356 C.3     1  UNL1        0.0286
      7 C         140.1148  137.7911  163.0590 C.3     1  UNL1        0.1562
      8 O         141.1430  137.8744  163.9397 O.3     1  UNL1       -0.3572
      9 N         138.3873  137.6526  161.5131 N.3     1  UNL1       -0.2926
     10 H         137.8942  136.7833  161.7174 H       1  UNL1        0.1236
     11 C         137.3517  138.7367  161.4645 C.3     1  UNL1        0.1152
     12 C         137.7674  140.1754  161.5499 C.ar    1  UNL1        0.0765
     13 C         138.1972  140.9066  160.3128 C.ar    1  UNL1        0.0193
     14 C         138.6130  142.3452  160.3982 C.ar    1  UNL1        0.0411
     15 C         138.5989  143.0528  161.7208 C.ar    1  UNL1        0.1708
     16 C         138.1691  142.3216  162.9580 C.ar    1  UNL1        0.1682
     17 N         137.7533  140.8828  162.8725 N.ar    1  UNL1       -0.2304
     18 N         138.1550  143.0290  164.2805 N.am    1  UNL1       -0.2639
     19 C         138.5707  144.4678  164.3660 C.2     1  UNL1        0.2718
     20 O         138.5566  145.1752  165.6886 O.2     1  UNL1       -0.2707
     21 C         139.0006  145.1990  163.1288 C.3     1  UNL1        0.2898
     22 O         139.0147  144.4914  161.8062 O.3     1  UNL1       -0.4628
     23 H         137.8729  142.5491  165.0925 H       1  UNL1        0.1565
     24 C         142.9356  138.0209  165.4088 C.3     1  UNL1        0.0319
     25 C         143.6616  139.3204  165.5934 C.3     1  UNL1        0.0304
     26 C         141.3462  140.1128  170.4164 C.3     1  UNL1        0.0528
     27 C         141.3657  140.8876  169.1322 C.ar    1  UNL1        0.0690
     28 N         142.1310  140.3652  167.9526 N.ar    1  UNL1       -0.2478
     29 C         142.1505  141.1401  166.6683 C.ar    1  UNL1        0.0946
     30 C         142.9158  140.6177  165.4887 C.ar    1  UNL1       -0.0015
     31 C         142.9353  141.3925  164.2045 C.ar    1  UNL1        0.0179
     32 C         142.1894  142.6897  164.0999 C.ar    1  UNL1        0.0986
     33 N         141.4241  143.2121  165.2795 N.ar    1  UNL1       -0.2423
     34 C         141.4047  142.4373  166.5637 C.ar    1  UNL1        0.0993
     35 C         140.6393  142.9597  167.7433 C.ar    1  UNL1        0.0321
     36 C         140.6199  142.1849  169.0275 C.ar    1  UNL1        0.0835
     37 C         139.8546  142.7073  170.2071 C.1     1  UNL1        0.1017
     38 N         139.0893  143.2297  171.3866 N.1     1  UNL1       -0.1908
@<TRIPOS>BOND
     1    26    27    1
     2    27    28   ar
     3    28    29   ar
     4    29    30   ar
     5    30    25    1
     6    25    24    1
     7    24     1    1
     8     1     2    1
     9     2     3    1
    10     3     4    1
    11     4     9    1
    12     9    11    1
    13    11    12    1
    14    12    13   ar
    15    13    14   ar
    16    14    15   ar
    17    15    16   ar
    18    16    17   ar
    19    16    18    1
    20    18    19   am
    21    19    20    2
    22    19    21    1
    23    21    22    1
    24     4     5    1
    25     5     6    1
    26     4     7    1
    27     7     8    1
    28    30    31   ar
    29    31    32   ar
    30    32    33   ar
    31    33    34   ar
    32    34    35   ar
    33    35    36   ar
    34    36    37    1
    35    37    38    3
    36    36    27   ar
    37    34    29   ar
    38     6     1    1
    39     8     1    1
    40    17    12   ar
    41    22    15    1
    42     9    10    1
    43    18    23    1
@<TRIPOS>MOLECULE
*****
 38 43 0 0 0
SMALL
GASTEIGER

@<TRIPOS>ATOM
      1 C         144.4824  143.0009  163.0983 C.3     1  UNL1        0.0932
      2 C         143.7878  143.2244  161.7876 C.3     1  UNL1        0.0286
      3 C         142.6579  144.2067  161.6956 C.3     1  UNL1        0.0193
      4 C         142.2226  144.9654  162.9141 C.3     1  UNL1        0.0700
      5 C         142.9171  144.7419  164.2246 C.3     1  UNL1        0.0193
      6 C         144.0470  143.7596  164.3168 C.3     1  UNL1        0.0286
      7 C         142.8467  144.4376  163.0137 C.3     1  UNL1        0.1562
      8 O         143.8683  143.5494  163.0969 O.3     1  UNL1       -0.3572
      9 N         141.0927  145.9477  162.8220 N.3     1  UNL1       -0.2926
     10 H         141.3277  146.5972  162.0715 H       1  UNL1        0.1236
     11 C         139.6981  145.4639  162.5552 C.3     1  UNL1        0.1152
     12 C         139.3068  144.0634  162.9234 C.ar    1  UNL1        0.0765
     13 C         138.7351  143.7766  164.2803 C.ar    1  UNL1        0.0193
     14 C         138.3438  142.3762  164.6485 C.ar    1  UNL1        0.0411
     15 C         138.5241  141.2625  163.6599 C.ar    1  UNL1        0.1708
     16 C         139.0958  141.5493  162.3031 C.ar    1  UNL1        0.1682
     17 N         139.4871  142.9498  161.9349 N.ar    1  UNL1       -0.2304
     18 N         139.2761  140.4357  161.3145 N.am    1  UNL1       -0.2639
     19 C         138.8847  139.0352  161.6827 C.2     1  UNL1        0.2718
     20 O         139.0650  137.9216  160.6942 O.2     1  UNL1       -0.2707
     21 C         138.3131  138.7484  163.0396 C.3     1  UNL1        0.2898
     22 O         138.1328  139.8621  164.0282 O.3     1  UNL1       -0.4628
     23 H         139.6512  140.6240  160.4240 H       1  UNL1        0.1565
     24 C         145.6122  142.0186  163.1903 C.3     1  UNL1        0.0319
     25 C         145.4625  140.7789  164.0214 C.3     1  UNL1        0.0304
     26 C         142.4363  141.6820  168.4120 C.3     1  UNL1        0.0528
     27 C         142.2787  140.8104  167.2014 C.ar    1  UNL1        0.0690
     28 N         143.3399  140.7999  166.1414 N.ar    1  UNL1       -0.2478
     29 C         143.1822  139.9282  164.9309 C.ar    1  UNL1        0.0946
     30 C         144.2435  139.9177  163.8709 C.ar    1  UNL1       -0.0015
     31 C         144.0859  139.0461  162.6603 C.ar    1  UNL1        0.0179
     32 C         142.8670  138.1850  162.5098 C.ar    1  UNL1        0.0986
     33 N         141.8057  138.1955  163.5698 N.ar    1  UNL1       -0.2423
     34 C         141.9633  139.0671  164.7803 C.ar    1  UNL1        0.0993
     35 C         140.9021  139.0776  165.8403 C.ar    1  UNL1        0.0321
     36 C         141.0597  139.9492  167.0509 C.ar    1  UNL1        0.0835
     37 C         139.9985  139.9597  168.1109 C.1     1  UNL1        0.1017
     38 N         138.9372  139.9701  169.1709 N.1     1  UNL1       -0.1908
@<TRIPOS>BOND
     1    26    27    1
     2    27    28   ar
     3    28    29   ar
     4    29    30   ar
     5    30    25    1
     6    25    24    1
     7    24     1    1
     8     1     2    1
     9     2     3    1
    10     3     4    1
    11     4     9    1
    12     9    11    1
    13    11    12    1
    14    12    13   ar
    15    13    14   ar
    16    14    15   ar
    17    15    16   ar
    18    16    17   ar
    19    16    18    1
    20    18    19   am
    21    19    20    2
    22    19    21    1
    23    21    22    1
    24     4     5    1
    25     5     6    1
    26     4     7    1
    27     7     8    1
    28    30    31   ar
    29    31    32   ar
    30    32    33   ar
    31    33    34   ar
    32    34    35   ar
    33    35    36   ar
    34    36    37    1
    35    37    38    3
    36    36    27   ar
    37    34    29   ar
    38     6     1    1
    39     8     1    1
    40    17    12   ar
    41    22    15    1
    42     9    10    1
    43    18    23    1
@<TRIPOS>MOLECULE
*****
 38 43 0 0 0
SMALL
GASTEIGER

@<TRIPOS>ATOM
      1 C         139.7545  138.2485  164.2891 C.3     1  UNL1        0.0932
      2 C         139.4522  138.4362  162.8318 C.3     1  UNL1        0.0286
      3 C         138.5030  139.5125  162.3953 C.3     1  UNL1        0.0193
      4 C         137.8560  140.4010  163.4160 C.3     1  UNL1        0.0700
      5 C         138.1583  140.2134  164.8732 C.3     1  UNL1        0.0193
      6 C         139.1075  139.1371  165.3098 C.3     1  UNL1        0.0286
      7 C         138.3694  139.8250  163.7034 C.3     1  UNL1        0.1562
      8 O         139.2278  138.8518  164.0980 O.3     1  UNL1       -0.3572
      9 N         136.9068  141.4773  162.9796 N.3     1  UNL1       -0.2926
     10 H         136.1058  141.4368  163.6097 H       1  UNL1        0.1236
     11 C         137.3587  142.9072  162.9451 C.3     1  UNL1        0.1152
     12 C         138.7782  143.2368  162.5898 C.ar    1  UNL1        0.0765
     13 C         139.2552  143.0731  161.1771 C.ar    1  UNL1        0.0193
     14 C         140.6747  143.4027  160.8218 C.ar    1  UNL1        0.0411
     15 C         141.6174  143.8960  161.8793 C.ar    1  UNL1        0.1708
     16 C         141.1404  144.0597  163.2920 C.ar    1  UNL1        0.1682
     17 N         139.7208  143.7301  163.6472 N.ar    1  UNL1       -0.2304
     18 N         142.0830  144.5529  164.3494 N.am    1  UNL1       -0.2639
     19 C         143.5027  144.8825  163.9941 C.2     1  UNL1        0.2718
     20 O         144.4452  145.3758  165.0516 O.2     1  UNL1       -0.2707
     21 C         143.9796  144.7188  162.5814 C.3     1  UNL1        0.2898
     22 O         143.0369  144.2255  161.5240 O.3     1  UNL1       -0.4628
     23 H         141.7700  144.6603  165.2766 H       1  UNL1        0.1565
     24 C         140.7038  137.1722  164.7255 C.3     1  UNL1        0.0319
     25 C         142.1710  137.4647  164.8334 C.3     1  UNL1        0.0304
     26 C         141.8140  139.7242  169.7342 C.3     1  UNL1        0.0528
     27 C         142.2764  140.2144  168.3941 C.ar    1  UNL1        0.0690
     28 N         142.2413  139.2978  167.2072 N.ar    1  UNL1       -0.2478
     29 C         142.7037  139.7881  165.8671 C.ar    1  UNL1        0.0946
     30 C         142.6685  138.8716  164.6802 C.ar    1  UNL1       -0.0015
     31 C         143.1309  139.3618  163.3401 C.ar    1  UNL1        0.0179
     32 C         143.6284  140.7685  163.1869 C.ar    1  UNL1        0.0986
     33 N         143.6635  141.6851  164.3738 N.ar    1  UNL1       -0.2423
     34 C         143.2012  141.1949  165.7139 C.ar    1  UNL1        0.0993
     35 C         143.2363  142.1114  166.9008 C.ar    1  UNL1        0.0321
     36 C         142.7739  141.6212  168.2409 C.ar    1  UNL1        0.0835
     37 C         142.8090  142.5377  169.4278 C.1     1  UNL1        0.1017
     38 N         142.8442  143.4543  170.6146 N.1     1  UNL1       -0.1908
@<TRIPOS>BOND
     1    26    27    1
     2    27    28   ar
     3    28    29   ar
     4    29    30   ar
     5    30    25    1
     6    25    24    1
     7    24     1    1
     8     1     2    1
     9     2     3    1
    10     3     4    1
    11     4     9    1
    12     9    11    1
    13    11    12    1
    14    12    13   ar
    15    13    14   ar
    16    14    15   ar
    17    15    16   ar
    18    16    17   ar
    19    16    18    1
    20    18    19   am
    21    19    20    2
    22    19    21    1
    23    21    22    1
    24     4     5    1
    25     5     6    1
    26     4     7    1
    27     7     8    1
    28    30    31   ar
    29    31    32   ar
    30    32    33   ar
    31    33    34   ar
    32    34    35   ar
    33    35    36   ar
    34    36    37    1
    35    37    38    3
    36    36    27   ar
    37    34    29   ar
    38     6     1    1
    39     8     1    1
    40    17    12   ar
    41    22    15    1
    42     9    10    1
    43    18    23    1
@<TRIPOS>MOLECULE
*****
 38 43 0 0 0
SMALL
GASTEIGER

@<TRIPOS>ATOM
      1 C         139.9270  137.8110  164.1951 C.3     1  UNL1        0.0932
      2 C         141.4080  137.7600  164.4281 C.3     1  UNL1        0.0286
      3 C         142.3521  137.7924  163.2630 C.3     1  UNL1        0.0193
      4 C         141.8153  137.8759  161.8648 C.3     1  UNL1        0.0700
      5 C         140.3344  137.9270  161.6317 C.3     1  UNL1        0.0193
      6 C         139.3902  137.8945  162.7969 C.3     1  UNL1        0.0286
      7 C         141.2588  137.8608  162.4715 C.3     1  UNL1        0.1562
      8 O         140.4051  137.8314  163.5250 O.3     1  UNL1       -0.3572
      9 N         142.7594  137.9084  160.6996 N.3     1  UNL1       -0.2926
     10 H         142.1874  137.9949  159.8595 H       1  UNL1        0.1236
     11 C         143.8132  138.9728  160.6176 C.3     1  UNL1        0.1152
     12 C         143.5644  140.3226  161.2226 C.ar    1  UNL1        0.0765
     13 C         142.5703  141.2542  160.5950 C.ar    1  UNL1        0.0193
     14 C         142.3216  142.6040  161.2000 C.ar    1  UNL1        0.0411
     15 C         143.0670  143.0223  162.4327 C.ar    1  UNL1        0.1708
     16 C         144.0611  142.0907  163.0603 C.ar    1  UNL1        0.1682
     17 N         144.3098  140.7409  162.4552 N.ar    1  UNL1       -0.2304
     18 N         144.8065  142.5090  164.2930 N.am    1  UNL1       -0.2639
     19 C         144.5578  143.8588  164.8981 C.2     1  UNL1        0.2718
     20 O         145.3031  144.2771  166.1307 O.2     1  UNL1       -0.2707
     21 C         143.5637  144.7904  164.2704 C.3     1  UNL1        0.2898
     22 O         142.8183  144.3721  163.0377 O.3     1  UNL1       -0.4628
     23 H         145.4589  141.8975  164.7049 H       1  UNL1        0.1565
     24 C         138.9829  137.7786  165.3602 C.3     1  UNL1        0.0319
     25 C         138.2331  139.0170  165.7527 C.3     1  UNL1        0.0304
     26 C         137.9114  142.5959  161.7107 C.3     1  UNL1        0.0528
     27 C         138.5531  142.6130  163.0663 C.ar    1  UNL1        0.0690
     28 N         138.4465  141.4143  163.9618 N.ar    1  UNL1       -0.2478
     29 C         139.0882  141.4314  165.3175 C.ar    1  UNL1        0.0946
     30 C         138.9816  140.2327  166.2129 C.ar    1  UNL1       -0.0015
     31 C         139.6233  140.2498  167.5686 C.ar    1  UNL1        0.0179
     32 C         140.3717  141.4655  168.0288 C.ar    1  UNL1        0.0986
     33 N         140.4784  142.6642  167.1333 N.ar    1  UNL1       -0.2423
     34 C         139.8367  142.6471  165.7777 C.ar    1  UNL1        0.0993
     35 C         139.9434  143.8458  164.8822 C.ar    1  UNL1        0.0321
     36 C         139.3016  143.8287  163.5266 C.ar    1  UNL1        0.0835
     37 C         139.4083  145.0274  162.6311 C.1     1  UNL1        0.1017
     38 N         139.5150  146.2260  161.7357 N.1     1  UNL1       -0.1908
@<TRIPOS>BOND
     1    26    27    1
     2    27    28   ar
     3    28    29   ar
     4    29    30   ar
     5    30    25    1
     6    25    24    1
     7    24     1    1
     8     1     2    1
     9     2     3    1
    10     3     4    1
    11     4     9    1
    12     9    11    1
    13    11    12    1
    14    12    13   ar
    15    13    14   ar
    16    14    15   ar
    17    15    16   ar
    18    16    17   ar
    19    16    18    1
    20    18    19   am
    21    19    20    2
    22    19    21    1
    23    21    22    1
    24     4     5    1
    25     5     6    1
    26     4     7    1
    27     7     8    1
    28    30    31   ar
    29    31    32   ar
    30    32    33   ar
    31    33    34   ar
    32    34    35   ar
    33    35    36   ar
    34    36    37    1
    35    37    38    3
    36    36    27   ar
    37    34    29   ar
    38     6     1    1
    39     8     1    1
    40    17    12   ar
    41    22    15    1
    42     9    10    1
    43    18    23    1
@<TRIPOS>MOLECULE
*****
 38 43 0 0 0
SMALL
GASTEIGER

@<TRIPOS>ATOM
      1 C         144.6828  140.4563  163.6629 C.3     1  UNL1        0.0932
      2 C         144.4350  140.0315  162.2457 C.3     1  UNL1        0.0286
      3 C         144.1461  141.0609  161.1937 C.3     1  UNL1        0.0193
      4 C         144.1049  142.5152  161.5588 C.3     1  UNL1        0.0700
      5 C         144.3526  142.9401  162.9758 C.3     1  UNL1        0.0193
      6 C         144.6416  141.9107  164.0279 C.3     1  UNL1        0.0286
      7 C         144.2672  141.9877  162.1699 C.3     1  UNL1        0.1562
      8 O         144.5285  141.0568  163.1211 O.3     1  UNL1       -0.3572
      9 N         143.8159  143.5447  160.5068 N.3     1  UNL1       -0.2926
     10 H         144.4103  143.3240  159.7078 H       1  UNL1        0.1236
     11 C         142.4215  143.7056  159.9779 C.3     1  UNL1        0.1152
     12 C         141.2457  143.4685  160.8786 C.ar    1  UNL1        0.0765
     13 C         140.2723  142.3704  160.5678 C.ar    1  UNL1        0.0193
     14 C         139.0965  142.1333  161.4685 C.ar    1  UNL1        0.0411
     15 C         138.8941  142.9944  162.6800 C.ar    1  UNL1        0.1708
     16 C         139.8675  144.0925  162.9908 C.ar    1  UNL1        0.1682
     17 N         141.0433  144.3295  162.0900 N.ar    1  UNL1       -0.2304
     18 N         139.6651  144.9535  164.2022 N.am    1  UNL1       -0.2639
     19 C         138.4893  144.7164  165.1030 C.2     1  UNL1        0.2718
     20 O         138.2869  145.5774  166.3144 O.2     1  UNL1       -0.2707
     21 C         137.5159  143.6183  164.7922 C.3     1  UNL1        0.2898
     22 O         137.7183  142.7573  163.5807 O.3     1  UNL1       -0.4628
     23 H         140.3040  145.6742  164.4062 H       1  UNL1        0.1565
     24 C         144.9717  139.4269  164.7149 C.3     1  UNL1        0.0319
     25 C         143.8420  138.7625  165.4444 C.3     1  UNL1        0.0304
     26 C         143.3663  142.3501  169.4634 C.3     1  UNL1        0.0528
     27 C         142.4434  141.8709  168.3824 C.ar    1  UNL1        0.0690
     28 N         142.9096  140.8348  167.4030 N.ar    1  UNL1       -0.2478
     29 C         141.9867  140.3556  166.3219 C.ar    1  UNL1        0.0946
     30 C         142.4529  139.3195  165.3426 C.ar    1  UNL1       -0.0015
     31 C         141.5301  138.8403  164.2615 C.ar    1  UNL1        0.0179
     32 C         140.1411  139.3973  164.1598 C.ar    1  UNL1        0.0986
     33 N         139.6749  140.4334  165.1391 N.ar    1  UNL1       -0.2423
     34 C         140.5977  140.9126  166.2202 C.ar    1  UNL1        0.0993
     35 C         140.1315  141.9487  167.1995 C.ar    1  UNL1        0.0321
     36 C         141.0543  142.4279  168.2806 C.ar    1  UNL1        0.0835
     37 C         140.5882  143.4640  169.2599 C.1     1  UNL1        0.1017
     38 N         140.1220  144.5002  170.2392 N.1     1  UNL1       -0.1908
@<TRIPOS>BOND
     1    26    27    1
     2    27    28   ar
     3    28    29   ar
     4    29    30   ar
     5    30    25    1
     6    25    24    1
     7    24     1    1
     8     1     2    1
     9     2     3    1
    10     3     4    1
    11     4     9    1
    12     9    11    1
    13    11    12    1
    14    12    13   ar
    15    13    14   ar
    16    14    15   ar
    17    15    16   ar
    18    16    17   ar
    19    16    18    1
    20    18    19   am
    21    19    20    2
    22    19    21    1
    23    21    22    1
    24     4     5    1
    25     5     6    1
    26     4     7    1
    27     7     8    1
    28    30    31   ar
    29    31    32   ar
    30    32    33   ar
    31    33    34   ar
    32    34    35   ar
    33    35    36   ar
    34    36    37    1
    35    37    38    3
    36    36    27   ar
    37    34    29   ar
    38     6     1    1
    39     8     1    1
    40    17    12   ar
    41    22    15    1
    42     9    10    1
    43    18    23    1
@<TRIPOS>MOLECULE
*****
 38 43 0 0 0
SMALL
GASTEIGER

@<TRIPOS>ATOM
      1 C         142.6944  144.0726  163.7270 C.3     1  UNL1        0.0932
      2 C         141.3398  144.2721  164.3396 C.3     1  UNL1        0.0286
      3 C         140.1141  144.2426  163.4755 C.3     1  UNL1        0.0193
      4 C         140.2430  144.0137  161.9987 C.3     1  UNL1        0.0700
      5 C         141.5975  143.8142  161.3860 C.3     1  UNL1        0.0193
      6 C         142.8233  143.8437  162.2502 C.3     1  UNL1        0.0286
      7 C         140.9434  144.0215  162.4315 C.3     1  UNL1        0.1562
      8 O         142.0517  144.0482  163.2130 O.3     1  UNL1       -0.3572
      9 N         139.0173  143.9842  161.1345 N.3     1  UNL1       -0.2926
     10 H         139.2789  144.3952  160.2384 H       1  UNL1        0.1236
     11 C         138.3441  142.6783  160.8319 C.3     1  UNL1        0.1152
     12 C         138.6637  141.4625  161.6503 C.ar    1  UNL1        0.0765
     13 C         139.5376  140.3841  161.0816 C.ar    1  UNL1        0.0193
     14 C         139.8571  139.1683  161.9000 C.ar    1  UNL1        0.0411
     15 C         139.3028  139.0309  163.2870 C.ar    1  UNL1        0.1708
     16 C         138.4289  140.1093  163.8557 C.ar    1  UNL1        0.1682
     17 N         138.1093  141.3251  163.0373 N.ar    1  UNL1       -0.2304
     18 N         137.8745  139.9719  165.2427 N.am    1  UNL1       -0.2639
     19 C         138.1940  138.7560  166.0611 C.2     1  UNL1        0.2718
     20 O         137.6397  138.6186  167.4480 O.2     1  UNL1       -0.2707
     21 C         139.0679  137.6776  165.4924 C.3     1  UNL1        0.2898
     22 O         139.6223  137.8151  164.1054 O.3     1  UNL1       -0.4628
     23 H         137.3009  140.6797  165.6159 H       1  UNL1        0.1565
     24 C         143.9201  144.1021  164.5912 C.3     1  UNL1        0.0319
     25 C         144.7083  142.8462  164.8179 C.3     1  UNL1        0.0304
     26 C         142.0282  142.8066  169.5153 C.3     1  UNL1        0.0528
     27 C         142.1719  141.8236  168.3916 C.ar    1  UNL1        0.0690
     28 N         143.0174  142.1644  167.2003 N.ar    1  UNL1       -0.2478
     29 C         143.1610  141.1813  166.0765 C.ar    1  UNL1        0.0946
     30 C         144.0065  141.5222  164.8853 C.ar    1  UNL1       -0.0015
     31 C         144.1502  140.5391  163.7616 C.ar    1  UNL1        0.0179
     32 C         143.4484  139.2151  163.8290 C.ar    1  UNL1        0.0986
     33 N         142.6029  138.8743  165.0202 N.ar    1  UNL1       -0.2423
     34 C         142.4593  139.8573  166.1440 C.ar    1  UNL1        0.0993
     35 C         141.6138  139.5164  167.3352 C.ar    1  UNL1        0.0321
     36 C         141.4701  140.4995  168.4590 C.ar    1  UNL1        0.0835
     37 C         140.6247  140.1586  169.6502 C.1     1  UNL1        0.1017
     38 N         139.7792  139.8177  170.8414 N.1     1  UNL1       -0.1908
@<TRIPOS>BOND
     1    26    27    1
     2    27    28   ar
     3    28    29   ar
     4    29    30   ar
     5    30    25    1
     6    25    24    1
     7    24     1    1
     8     1     2    1
     9     2     3    1
    10     3     4    1
    11     4     9    1
    12     9    11    1
    13    11    12    1
    14    12    13   ar
    15    13    14   ar
    16    14    15   ar
    17    15    16   ar
    18    16    17   ar
    19    16    18    1
    20    18    19   am
    21    19    20    2
    22    19    21    1
    23    21    22    1
    24     4     5    1
    25     5     6    1
    26     4     7    1
    27     7     8    1
    28    30    31   ar
    29    31    32   ar
    30    32    33   ar
    31    33    34   ar
    32    34    35   ar
    33    35    36   ar
    34    36    37    1
    35    37    38    3
    36    36    27   ar
    37    34    29   ar
    38     6     1    1
    39     8     1    1
    40    17    12   ar
    41    22    15    1
    42     9    10    1
    43    18    23    1
@<TRIPOS>MOLECULE
*****
 38 43 0 0 0
SMALL
GASTEIGER

@<TRIPOS>ATOM
      1 C         137.7784  142.5905  163.9009 C.3     1  UNL1        0.0932
      2 C         137.6180  142.4566  162.4154 C.3     1  UNL1        0.0286
      3 C         137.7059  141.1052  161.7704 C.3     1  UNL1        0.0193
      4 C         137.9543  139.8878  162.6107 C.3     1  UNL1        0.0700
      5 C         138.1148  140.0216  164.0960 C.3     1  UNL1        0.0193
      6 C         138.0268  141.3730  164.7412 C.3     1  UNL1        0.0286
      7 C         137.9141  140.6071  163.0093 C.3     1  UNL1        0.1562
      8 O         137.8346  141.8290  163.5926 O.3     1  UNL1       -0.3572
      9 N         138.0422  138.5364  161.9656 N.3     1  UNL1       -0.2926
     10 H         137.2802  138.4827  161.2897 H       1  UNL1        0.1236
     11 C         139.2921  138.1305  161.2423 C.3     1  UNL1        0.1152
     12 C         140.6321  138.3489  161.8799 C.ar    1  UNL1        0.0765
     13 C         141.7896  138.8202  161.0503 C.ar    1  UNL1        0.0193
     14 C         143.1296  139.0385  161.6879 C.ar    1  UNL1        0.0411
     15 C         143.3123  138.7856  163.1551 C.ar    1  UNL1        0.1708
     16 C         142.1548  138.3143  163.9847 C.ar    1  UNL1        0.1682
     17 N         140.8147  138.0959  163.3470 N.ar    1  UNL1       -0.2304
     18 N         142.3374  138.0613  165.4519 N.am    1  UNL1       -0.2639
     19 C         143.6775  138.2797  166.0896 C.2     1  UNL1        0.2718
     20 O         143.8601  138.0267  167.5567 O.2     1  UNL1       -0.2707
     21 C         144.8349  138.7510  165.2600 C.3     1  UNL1        0.2898
     22 O         144.6523  139.0039  163.7927 O.3     1  UNL1       -0.4628
     23 H         141.5777  137.7520  165.9963 H       1  UNL1        0.1565
     24 C         137.6905  143.9418  164.5459 C.3     1  UNL1        0.0319
     25 C         138.8819  144.8531  164.5433 C.3     1  UNL1        0.0304
     26 C         143.3767  142.1039  165.7635 C.3     1  UNL1        0.0528
     27 C         142.9126  142.8521  164.5491 C.ar    1  UNL1        0.0690
     28 N         141.5690  143.5191  164.5471 N.ar    1  UNL1       -0.2478
     29 C         141.1049  144.2673  163.3327 C.ar    1  UNL1        0.0946
     30 C         139.7614  144.9343  163.3308 C.ar    1  UNL1       -0.0015
     31 C         139.2972  145.6825  162.1164 C.ar    1  UNL1        0.0179
     32 C         140.1766  145.7637  160.9040 C.ar    1  UNL1        0.0986
     33 N         141.5201  145.0967  160.9059 N.ar    1  UNL1       -0.2423
     34 C         141.9843  144.3485  162.1203 C.ar    1  UNL1        0.0993
     35 C         143.3278  143.6815  162.1222 C.ar    1  UNL1        0.0321
     36 C         143.7920  142.9333  163.3366 C.ar    1  UNL1        0.0835
     37 C         145.1355  142.2663  163.3385 C.1     1  UNL1        0.1017
     38 N         146.4790  141.5993  163.3405 N.1     1  UNL1       -0.1908
@<TRIPOS>BOND
     1    26    27    1
     2    27    28   ar
     3    28    29   ar
     4    29    30   ar
     5    30    25    1
     6    25    24    1
     7    24     1    1
     8     1     2    1
     9     2     3    1
    10     3     4    1
    11     4     9    1
    12     9    11    1
    13    11    12    1
    14    12    13   ar
    15    13    14   ar
    16    14    15   ar
    17    15    16   ar
    18    16    17   ar
    19    16    18    1
    20    18    19   am
    21    19    20    2
    22    19    21    1
    23    21    22    1
    24     4     5    1
    25     5     6    1
    26     4     7    1
    27     7     8    1
    28    30    31   ar
    29    31    32   ar
    30    32    33   ar
    31    33    34   ar
    32    34    35   ar
    33    35    36   ar
    34    36    37    1
    35    37    38    3
    36    36    27   ar
    37    34    29   ar
    38     6     1    1
    39     8     1    1
    40    17    12   ar
    41    22    15    1
    42     9    10    1
    43    18    23    1
