@<TRIPOS>MOLECULE
*****
 33 36 0 0 0
SMALL
GASTEIGER

@<TRIPOS>ATOM
      1 N         139.3916  142.7002  160.5284 N.3     1  UNL1       -0.2689
      2 C         138.1883  142.7391  161.4231 C.3     1  UNL1        0.0897
      3 C         137.8618  141.5614  162.2928 C.3     1  UNL1        0.0900
      4 N         138.7388  140.3447  162.2679 N.3     1  UNL1       -0.2626
      5 C         139.9421  140.3057  161.3732 C.3     1  UNL1        0.0900
      6 C         140.2685  141.4834  160.5035 C.3     1  UNL1        0.0897
      7 C         139.7180  143.8779  159.6587 C.3     1  UNL1        0.0937
      8 C         140.3081  145.1168  160.2644 C.3     1  UNL1        0.1082
      9 N         143.6620  144.5895  162.3194 N.am    1  UNL1       -0.2921
     10 C         142.2103  144.5567  161.9429 C.2     1  UNL1        0.3007
     11 O         141.2094  143.9312  162.8685 O.2     1  UNL1       -0.2528
     12 N         141.7596  145.1496  160.6408 N.am    1  UNL1       -0.2875
     13 H         144.3189  145.0000  161.7118 H       1  UNL1        0.1508
     14 H         142.4166  145.5601  160.0333 H       1  UNL1        0.1510
     15 C         144.4620  142.7184  162.9186 C.3     1  UNL1        0.0197
     16 C         144.1127  143.9966  163.6215 C.3     1  UNL1        0.0583
     17 C         143.7633  145.2749  164.3243 C.3     1  UNL1        0.0197
     18 C         144.5634  143.4038  164.9236 C.3     1  UNL1        0.0197
     19 C         138.4124  139.1670  163.1376 C.3     1  UNL1        0.1585
     20 C         139.0769  139.0143  164.4737 C.2     1  UNL1        0.2388
     21 O         138.6494  137.9170  165.4029 O.2     1  UNL1       -0.2736
     22 N         140.1689  139.9587  164.8806 N.am    1  UNL1       -0.3063
     23 H         140.4494  140.6788  164.2708 H       1  UNL1        0.1493
     24 C         140.8334  139.8059  166.2167 C.3     1  UNL1        0.0568
     25 C         142.1969  139.1878  166.3099 C.3     1  UNL1        0.0180
     26 C         142.8613  139.0351  167.6460 C.3     1  UNL1        0.0016
     27 C         142.1623  139.5005  168.8889 C.3     1  UNL1        0.0001
     28 C         140.7988  140.1186  168.7957 C.3     1  UNL1        0.0016
     29 C         141.7051  139.3480  165.7308 C.3     1  UNL1        0.0001
     30 C         142.8960  138.7225  165.0671 C.3     1  UNL1        0.0016
     31 C         143.5604  138.5697  166.4031 C.3     1  UNL1        0.0001
     32 C         141.5324  139.3405  164.9739 C.3     1  UNL1        0.0180
     33 C         140.1343  140.2713  167.4596 C.3     1  UNL1        0.0180
@<TRIPOS>BOND
     1    15    16    1
     2    16    17    1
     3    16    18    1
     4    16     9    1
     5     9    10   am
     6    10    11    2
     7    10    12   am
     8    12     8    1
     9     8     7    1
    10     7     1    1
    11     1     2    1
    12     2     3    1
    13     3     4    1
    14     4    19    1
    15    19    20    1
    16    20    21    2
    17    20    22   am
    18    22    24    1
    19    24    25    1
    20    25    26    1
    21    26    27    1
    22    27    28    1
    23    28    29    1
    24    29    30    1
    25    30    31    1
    26    30    32    1
    27    28    33    1
    28     4     5    1
    29     5     6    1
    30     6     1    1
    31    32    24    1
    32    33    24    1
    33    31    26    1
    34     9    13    1
    35    12    14    1
    36    22    23    1
@<TRIPOS>MOLECULE
*****
 33 36 0 0 0
SMALL
GASTEIGER

@<TRIPOS>ATOM
      1 N         144.5080  141.4412  161.3986 N.3     1  UNL1       -0.2689
      2 C         145.2727  141.8873  162.6096 C.3     1  UNL1        0.0897
      3 C         145.3823  140.9841  163.8021 C.3     1  UNL1        0.0900
      4 N         144.7272  139.6348  163.7838 N.3     1  UNL1       -0.2626
      5 C         143.9625  139.1888  162.5729 C.3     1  UNL1        0.0900
      6 C         143.8528  140.0920  161.3803 C.3     1  UNL1        0.0897
      7 C         144.3984  142.3445  160.2061 C.3     1  UNL1        0.0937
      8 C         143.2585  143.3139  160.1018 C.3     1  UNL1        0.1082
      9 N         141.5278  144.5164  163.4646 N.am    1  UNL1       -0.2921
     10 C         141.8976  143.6640  162.2870 C.2     1  UNL1        0.3007
     11 O         141.2764  142.3093  162.1172 O.2     1  UNL1       -0.2528
     12 N         142.8887  144.1663  161.2793 N.am    1  UNL1       -0.2875
     13 H         141.9355  145.4055  163.5761 H       1  UNL1        0.1508
     14 H         143.2964  145.0554  161.3908 H       1  UNL1        0.1510
     15 C         139.4501  144.7924  163.7916 C.3     1  UNL1        0.0197
     16 C         140.5368  144.0141  164.4723 C.3     1  UNL1        0.0583
     17 C         141.6235  143.2358  165.1531 C.3     1  UNL1        0.0197
     18 C         139.5457  143.5118  165.4801 C.3     1  UNL1        0.0197
     19 C         144.8368  138.7316  164.9763 C.3     1  UNL1        0.1585
     20 C         143.8405  138.8390  166.0926 C.2     1  UNL1        0.2388
     21 O         143.9214  137.9038  167.2626 O.2     1  UNL1       -0.2736
     22 N         142.7634  139.8815  166.0389 N.am    1  UNL1       -0.3063
     23 H         142.7104  140.4953  165.2710 H       1  UNL1        0.1493
     24 C         141.7672  139.9889  167.1552 C.3     1  UNL1        0.0568
     25 C         140.3130  139.7346  166.8896 C.3     1  UNL1        0.0180
     26 C         139.3168  139.8420  168.0059 C.3     1  UNL1        0.0016
     27 C         139.7749  140.2037  169.3877 C.3     1  UNL1        0.0001
     28 C         141.2291  140.4580  169.6532 C.3     1  UNL1        0.0016
     29 C         140.9590  139.7286  166.4589 C.3     1  UNL1        0.0001
     30 C         139.8549  139.3730  165.5078 C.3     1  UNL1        0.0016
     31 C         138.8588  139.4804  166.6241 C.3     1  UNL1        0.0001
     32 C         141.3091  139.6272  165.7734 C.3     1  UNL1        0.0180
     33 C         142.2252  140.3506  168.5370 C.3     1  UNL1        0.0180
@<TRIPOS>BOND
     1    15    16    1
     2    16    17    1
     3    16    18    1
     4    16     9    1
     5     9    10   am
     6    10    11    2
     7    10    12   am
     8    12     8    1
     9     8     7    1
    10     7     1    1
    11     1     2    1
    12     2     3    1
    13     3     4    1
    14     4    19    1
    15    19    20    1
    16    20    21    2
    17    20    22   am
    18    22    24    1
    19    24    25    1
    20    25    26    1
    21    26    27    1
    22    27    28    1
    23    28    29    1
    24    29    30    1
    25    30    31    1
    26    30    32    1
    27    28    33    1
    28     4     5    1
    29     5     6    1
    30     6     1    1
    31    32    24    1
    32    33    24    1
    33    31    26    1
    34     9    13    1
    35    12    14    1
    36    22    23    1
@<TRIPOS>MOLECULE
*****
 33 36 0 0 0
SMALL
GASTEIGER

@<TRIPOS>ATOM
      1 N         144.3128  141.2732  161.8428 N.3     1  UNL1       -0.2689
      2 C         143.3533  140.1214  161.8964 C.3     1  UNL1        0.0897
      3 C         143.2864  139.2573  163.1206 C.3     1  UNL1        0.0900
      4 N         144.1789  139.5450  164.2914 N.3     1  UNL1       -0.2626
      5 C         145.1384  140.6967  164.2378 C.3     1  UNL1        0.0900
      6 C         145.2054  141.5608  163.0135 C.3     1  UNL1        0.0897
      7 C         144.3797  142.1372  160.6185 C.3     1  UNL1        0.0937
      8 C         143.3879  143.2464  160.4282 C.3     1  UNL1        0.1082
      9 N         141.2460  144.6078  163.4792 N.am    1  UNL1       -0.2921
     10 C         141.6734  143.7746  162.3073 C.2     1  UNL1        0.3007
     11 O         140.8137  142.6365  161.8429 O.2     1  UNL1       -0.2528
     12 N         142.9605  144.0795  161.6000 N.am    1  UNL1       -0.2875
     13 H         141.8102  145.3548  163.7840 H       1  UNL1        0.1508
     14 H         143.5247  144.8265  161.9048 H       1  UNL1        0.1510
     15 C         140.7065  143.4768  165.1909 C.3     1  UNL1        0.0197
     16 C         139.9589  144.3028  164.1866 C.3     1  UNL1        0.0583
     17 C         139.2112  145.1289  163.1822 C.3     1  UNL1        0.0197
     18 C         138.6718  143.9979  164.8939 C.3     1  UNL1        0.0197
     19 C         144.1120  138.6809  165.5156 C.3     1  UNL1        0.1585
     20 C         143.2536  139.0894  166.6760 C.2     1  UNL1        0.2388
     21 O         143.3539  138.3532  167.9790 O.2     1  UNL1       -0.2736
     22 N         142.2949  140.2342  166.5332 N.am    1  UNL1       -0.3063
     23 H         142.2290  140.7174  165.6780 H       1  UNL1        0.1493
     24 C         141.4364  140.6427  167.6936 C.3     1  UNL1        0.0568
     25 C         141.8937  141.7317  168.6181 C.3     1  UNL1        0.0180
     26 C         141.0353  142.1402  169.7783 C.3     1  UNL1        0.0016
     27 C         139.7196  141.4595  170.0141 C.3     1  UNL1        0.0001
     28 C         139.2623  140.3705  169.0896 C.3     1  UNL1        0.0016
     29 C         142.1859  141.3906  167.9847 C.3     1  UNL1        0.0001
     30 C         143.2095  142.4123  168.3823 C.3     1  UNL1        0.0016
     31 C         142.3511  142.8208  169.5426 C.3     1  UNL1        0.0001
     32 C         142.7522  141.3233  167.4578 C.3     1  UNL1        0.0180
     33 C         140.1207  139.9620  167.9293 C.3     1  UNL1        0.0180
@<TRIPOS>BOND
     1    15    16    1
     2    16    17    1
     3    16    18    1
     4    16     9    1
     5     9    10   am
     6    10    11    2
     7    10    12   am
     8    12     8    1
     9     8     7    1
    10     7     1    1
    11     1     2    1
    12     2     3    1
    13     3     4    1
    14     4    19    1
    15    19    20    1
    16    20    21    2
    17    20    22   am
    18    22    24    1
    19    24    25    1
    20    25    26    1
    21    26    27    1
    22    27    28    1
    23    28    29    1
    24    29    30    1
    25    30    31    1
    26    30    32    1
    27    28    33    1
    28     4     5    1
    29     5     6    1
    30     6     1    1
    31    32    24    1
    32    33    24    1
    33    31    26    1
    34     9    13    1
    35    12    14    1
    36    22    23    1
@<TRIPOS>MOLECULE
*****
 33 36 0 0 0
SMALL
GASTEIGER

@<TRIPOS>ATOM
      1 N         141.1782  138.0895  161.9539 N.3     1  UNL1       -0.2689
      2 C         140.2831  139.2853  161.8157 C.3     1  UNL1        0.0897
      3 C         139.3793  139.6801  162.9458 C.3     1  UNL1        0.0900
      4 N         139.3705  138.8792  164.2141 N.3     1  UNL1       -0.2626
      5 C         140.2655  137.6835  164.3523 C.3     1  UNL1        0.0900
      6 C         141.1694  137.2886  163.2221 C.3     1  UNL1        0.0897
      7 C         142.0820  137.6946  160.8238 C.3     1  UNL1        0.0937
      8 C         143.5298  138.0861  160.8494 C.3     1  UNL1        0.1082
      9 N         144.7562  140.2066  163.9718 N.am    1  UNL1       -0.2921
     10 C         144.0990  139.8480  162.6719 C.2     1  UNL1        0.3007
     11 O         143.3542  140.8926  161.8948 O.2     1  UNL1       -0.2528
     12 N         144.1868  138.4447  162.1492 N.am    1  UNL1       -0.2875
     13 H         145.2450  139.5210  164.4819 H       1  UNL1        0.1508
     14 H         144.6757  137.7591  162.6593 H       1  UNL1        0.1510
     15 C         143.5035  141.2168  165.3540 C.3     1  UNL1        0.0197
     16 C         144.6684  141.6098  164.4946 C.3     1  UNL1        0.0583
     17 C         145.8332  142.0028  163.6351 C.3     1  UNL1        0.0197
     18 C         144.5806  143.0130  165.0173 C.3     1  UNL1        0.0197
     19 C         138.4666  139.2740  165.3442 C.3     1  UNL1        0.1585
     20 C         139.0421  139.5626  166.6991 C.2     1  UNL1        0.2388
     21 O         138.3486  139.0608  167.9308 O.2     1  UNL1       -0.2736
     22 N         140.3109  140.3530  166.8222 N.am    1  UNL1       -0.3063
     23 H         140.7661  140.6824  166.0137 H       1  UNL1        0.1493
     24 C         140.8864  140.6416  168.1771 C.3     1  UNL1        0.0568
     25 C         140.8059  142.0269  168.7465 C.3     1  UNL1        0.0180
     26 C         141.3813  142.3154  170.1014 C.3     1  UNL1        0.0016
     27 C         142.0372  141.2186  170.8868 C.3     1  UNL1        0.0001
     28 C         142.1176  139.8333  170.3173 C.3     1  UNL1        0.0016
     29 C         140.5752  141.6907  168.0858 C.3     1  UNL1        0.0001
     30 C         140.1501  143.1238  167.9611 C.3     1  UNL1        0.0016
     31 C         140.7255  143.4123  169.3160 C.3     1  UNL1        0.0001
     32 C         140.2305  141.7384  167.3917 C.3     1  UNL1        0.0180
     33 C         141.5422  139.5448  168.9625 C.3     1  UNL1        0.0180
@<TRIPOS>BOND
     1    15    16    1
     2    16    17    1
     3    16    18    1
     4    16     9    1
     5     9    10   am
     6    10    11    2
     7    10    12   am
     8    12     8    1
     9     8     7    1
    10     7     1    1
    11     1     2    1
    12     2     3    1
    13     3     4    1
    14     4    19    1
    15    19    20    1
    16    20    21    2
    17    20    22   am
    18    22    24    1
    19    24    25    1
    20    25    26    1
    21    26    27    1
    22    27    28    1
    23    28    29    1
    24    29    30    1
    25    30    31    1
    26    30    32    1
    27    28    33    1
    28     4     5    1
    29     5     6    1
    30     6     1    1
    31    32    24    1
    32    33    24    1
    33    31    26    1
    34     9    13    1
    35    12    14    1
    36    22    23    1
@<TRIPOS>MOLECULE
*****
 33 36 0 0 0
SMALL
GASTEIGER

@<TRIPOS>ATOM
      1 N         138.8876  139.2892  160.8042 N.3     1  UNL1       -0.2689
      2 C         138.1389  139.0319  162.0783 C.3     1  UNL1        0.0897
      3 C         138.8349  138.3872  163.2401 C.3     1  UNL1        0.0900
      4 N         140.2796  137.9997  163.1279 N.3     1  UNL1       -0.2626
      5 C         141.0284  138.2570  161.8539 C.3     1  UNL1        0.0900
      6 C         140.3324  138.9018  160.6920 C.3     1  UNL1        0.0897
      7 C         138.1916  139.9339  159.6424 C.3     1  UNL1        0.0937
      8 C         138.4652  141.3702  159.3072 C.3     1  UNL1        0.1082
      9 N         137.8701  143.9722  162.2441 N.am    1  UNL1       -0.2921
     10 C         138.4865  142.8795  161.4217 C.2     1  UNL1        0.3007
     11 O         139.7404  142.2037  161.8916 O.2     1  UNL1       -0.2528
     12 N         137.8489  142.4628  160.1295 N.am    1  UNL1       -0.2875
     13 H         137.0471  144.4158  161.9357 H       1  UNL1        0.1508
     14 H         137.0259  142.9064  159.8211 H       1  UNL1        0.1510
     15 C         139.3763  145.3610  162.7942 C.3     1  UNL1        0.0197
     16 C         138.5077  144.3890  163.5363 C.3     1  UNL1        0.0583
     17 C         137.6391  143.4169  164.2784 C.3     1  UNL1        0.0197
     18 C         139.1453  144.8057  164.8285 C.3     1  UNL1        0.0197
     19 C         140.9756  137.3550  164.2897 C.3     1  UNL1        0.1585
     20 C         141.7163  138.2002  165.2833 C.2     1  UNL1        0.2388
     21 O         143.1194  137.8418  165.6745 O.2     1  UNL1       -0.2736
     22 N         141.0539  139.4036  165.8858 N.am    1  UNL1       -0.3063
     23 H         140.1330  139.6387  165.6291 H       1  UNL1        0.1493
     24 C         141.7946  140.2487  166.8794 C.3     1  UNL1        0.0568
     25 C         142.4483  141.5248  166.4389 C.3     1  UNL1        0.0180
     26 C         143.1889  142.3699  167.4325 C.3     1  UNL1        0.0016
     27 C         143.2758  141.9388  168.8666 C.3     1  UNL1        0.0001
     28 C         142.6221  140.6627  169.3071 C.3     1  UNL1        0.0016
     29 C         142.0341  140.9702  166.0871 C.3     1  UNL1        0.0001
     30 C         142.3614  141.9559  165.0048 C.3     1  UNL1        0.0016
     31 C         143.1020  142.8010  165.9984 C.3     1  UNL1        0.0001
     32 C         141.7077  140.6798  165.4453 C.3     1  UNL1        0.0180
     33 C         141.8815  139.8176  168.3135 C.3     1  UNL1        0.0180
@<TRIPOS>BOND
     1    15    16    1
     2    16    17    1
     3    16    18    1
     4    16     9    1
     5     9    10   am
     6    10    11    2
     7    10    12   am
     8    12     8    1
     9     8     7    1
    10     7     1    1
    11     1     2    1
    12     2     3    1
    13     3     4    1
    14     4    19    1
    15    19    20    1
    16    20    21    2
    17    20    22   am
    18    22    24    1
    19    24    25    1
    20    25    26    1
    21    26    27    1
    22    27    28    1
    23    28    29    1
    24    29    30    1
    25    30    31    1
    26    30    32    1
    27    28    33    1
    28     4     5    1
    29     5     6    1
    30     6     1    1
    31    32    24    1
    32    33    24    1
    33    31    26    1
    34     9    13    1
    35    12    14    1
    36    22    23    1
@<TRIPOS>MOLECULE
*****
 33 36 0 0 0
SMALL
GASTEIGER

@<TRIPOS>ATOM
      1 N         139.6478  139.0372  160.4470 N.3     1  UNL1       -0.2689
      2 C         141.1285  138.8857  160.6337 C.3     1  UNL1        0.0897
      3 C         141.6707  138.3536  161.9270 C.3     1  UNL1        0.0900
      4 N         140.7324  137.9732  163.0338 N.3     1  UNL1       -0.2626
      5 C         139.2519  138.1247  162.8471 C.3     1  UNL1        0.0900
      6 C         138.7095  138.6568  161.5537 C.3     1  UNL1        0.0897
      7 C         139.1056  139.5693  159.1536 C.3     1  UNL1        0.0937
      8 C         139.1242  141.0445  158.8828 C.3     1  UNL1        0.1082
      9 N         137.8070  143.4468  161.7540 N.am    1  UNL1       -0.2921
     10 C         138.6997  142.5293  160.9720 C.2     1  UNL1        0.3007
     11 O         140.0604  142.1793  161.4973 O.2     1  UNL1       -0.2528
     12 N         138.2316  141.9619  159.6648 N.am    1  UNL1       -0.2875
     13 H         136.9140  143.6766  161.4092 H       1  UNL1        0.1508
     14 H         137.3386  142.1917  159.3200 H       1  UNL1        0.1510
     15 C         137.5932  142.8952  163.7912 C.3     1  UNL1        0.0197
     16 C         138.2751  144.0142  163.0613 C.3     1  UNL1        0.0583
     17 C         138.9571  145.1332  162.3314 C.3     1  UNL1        0.0197
     18 C         138.7432  144.5817  164.3685 C.3     1  UNL1        0.0197
     19 C         141.2747  137.4411  164.3271 C.3     1  UNL1        0.1585
     20 C         141.7403  138.3896  165.3919 C.2     1  UNL1        0.2388
     21 O         143.0483  138.1531  166.0872 O.2     1  UNL1       -0.2736
     22 N         140.8981  139.5746  165.7613 N.am    1  UNL1       -0.3063
     23 H         140.0397  139.7298  165.3050 H       1  UNL1        0.1493
     24 C         141.3638  140.5230  166.8261 C.3     1  UNL1        0.0568
     25 C         140.5593  140.6964  168.0801 C.3     1  UNL1        0.0180
     26 C         141.0249  141.6448  169.1448 C.3     1  UNL1        0.0016
     27 C         142.2951  142.4199  168.9554 C.3     1  UNL1        0.0001
     28 C         143.0996  142.2466  167.7014 C.3     1  UNL1        0.0016
     29 C         140.4869  140.2687  167.4361 C.3     1  UNL1        0.0001
     30 C         139.2891  139.9213  168.2695 C.3     1  UNL1        0.0016
     31 C         139.7548  140.8697  169.3342 C.3     1  UNL1        0.0001
     32 C         140.0936  139.7479  167.0154 C.3     1  UNL1        0.0180
     33 C         142.6340  141.2981  166.6367 C.3     1  UNL1        0.0180
@<TRIPOS>BOND
     1    15    16    1
     2    16    17    1
     3    16    18    1
     4    16     9    1
     5     9    10   am
     6    10    11    2
     7    10    12   am
     8    12     8    1
     9     8     7    1
    10     7     1    1
    11     1     2    1
    12     2     3    1
    13     3     4    1
    14     4    19    1
    15    19    20    1
    16    20    21    2
    17    20    22   am
    18    22    24    1
    19    24    25    1
    20    25    26    1
    21    26    27    1
    22    27    28    1
    23    28    29    1
    24    29    30    1
    25    30    31    1
    26    30    32    1
    27    28    33    1
    28     4     5    1
    29     5     6    1
    30     6     1    1
    31    32    24    1
    32    33    24    1
    33    31    26    1
    34     9    13    1
    35    12    14    1
    36    22    23    1
@<TRIPOS>MOLECULE
*****
 33 36 0 0 0
SMALL
GASTEIGER

@<TRIPOS>ATOM
      1 N         139.2872  140.2003  159.5065 N.3     1  UNL1       -0.2689
      2 C         140.4325  139.3952  160.0452 C.3     1  UNL1        0.0897
      3 C         140.2228  138.4845  161.2184 C.3     1  UNL1        0.0900
      4 N         138.8678  138.3788  161.8531 N.3     1  UNL1       -0.2626
      5 C         137.7225  139.1838  161.3144 C.3     1  UNL1        0.0900
      6 C         137.9322  140.0946  160.1411 C.3     1  UNL1        0.0897
      7 C         139.4969  141.1110  158.3332 C.3     1  UNL1        0.0937
      8 C         139.7895  142.5653  158.5555 C.3     1  UNL1        0.1082
      9 N         138.4277  144.2541  161.8787 N.am    1  UNL1       -0.2921
     10 C         139.2841  143.4509  160.9451 C.2     1  UNL1        0.3007
     11 O         140.4914  142.7303  161.4676 O.2     1  UNL1       -0.2528
     12 N         138.9331  143.3684  159.4891 N.am    1  UNL1       -0.2875
     13 H         137.6352  144.7271  161.5358 H       1  UNL1        0.1508
     14 H         138.1407  143.8414  159.1462 H       1  UNL1        0.1510
     15 C         139.7589  145.4321  163.0363 C.3     1  UNL1        0.0197
     16 C         138.7786  144.3366  163.3347 C.3     1  UNL1        0.0583
     17 C         137.7984  143.2411  163.6331 C.3     1  UNL1        0.0197
     18 C         139.1296  144.4191  164.7907 C.3     1  UNL1        0.0197
     19 C         138.6581  137.4681  163.0263 C.3     1  UNL1        0.1585
     20 C         139.1061  137.8914  164.3939 C.2     1  UNL1        0.2388
     21 O         138.5897  137.1762  165.6071 O.2     1  UNL1       -0.2736
     22 N         140.0705  139.0298  164.5482 N.am    1  UNL1       -0.3063
     23 H         140.4095  139.4992  163.7519 H       1  UNL1        0.1493
     24 C         140.5186  139.4531  165.9158 C.3     1  UNL1        0.0568
     25 C         141.9054  139.1268  166.3851 C.3     1  UNL1        0.0180
     26 C         142.3534  139.5501  167.7525 C.3     1  UNL1        0.0016
     27 C         141.4146  140.2997  168.6507 C.3     1  UNL1        0.0001
     28 C         140.0278  140.6259  168.1815 C.3     1  UNL1        0.0016
     29 C         141.5015  138.9984  165.7344 C.3     1  UNL1        0.0001
     30 C         142.8442  138.3773  165.4868 C.3     1  UNL1        0.0016
     31 C         143.2922  138.8005  166.8543 C.3     1  UNL1        0.0001
     32 C         141.4574  138.7035  165.0176 C.3     1  UNL1        0.0180
     33 C         139.5798  140.2026  166.8140 C.3     1  UNL1        0.0180
@<TRIPOS>BOND
     1    15    16    1
     2    16    17    1
     3    16    18    1
     4    16     9    1
     5     9    10   am
     6    10    11    2
     7    10    12   am
     8    12     8    1
     9     8     7    1
    10     7     1    1
    11     1     2    1
    12     2     3    1
    13     3     4    1
    14     4    19    1
    15    19    20    1
    16    20    21    2
    17    20    22   am
    18    22    24    1
    19    24    25    1
    20    25    26    1
    21    26    27    1
    22    27    28    1
    23    28    29    1
    24    29    30    1
    25    30    31    1
    26    30    32    1
    27    28    33    1
    28     4     5    1
    29     5     6    1
    30     6     1    1
    31    32    24    1
    32    33    24    1
    33    31    26    1
    34     9    13    1
    35    12    14    1
    36    22    23    1
@<TRIPOS>MOLECULE
*****
 33 36 0 0 0
SMALL
GASTEIGER

@<TRIPOS>ATOM
      1 N         142.1864  139.6903  161.4859 N.3     1  UNL1       -0.2689
      2 C         141.6341  138.5240  162.2507 C.3     1  UNL1        0.0897
      3 C         142.1704  138.1990  163.6133 C.3     1  UNL1        0.0900
      4 N         143.2590  139.0402  164.2111 N.3     1  UNL1       -0.2626
      5 C         143.8113  140.2064  163.4464 C.3     1  UNL1        0.0900
      6 C         143.2750  140.5315  162.0837 C.3     1  UNL1        0.0897
      7 C         141.6501  140.0153  160.1233 C.3     1  UNL1        0.0937
      8 C         140.3791  140.7998  159.9850 C.3     1  UNL1        0.1082
      9 N         138.6094  142.1998  163.2497 N.am    1  UNL1       -0.2921
     10 C         139.5488  142.0827  162.0861 C.2     1  UNL1        0.3007
     11 O         140.5973  143.1313  161.8602 O.2     1  UNL1       -0.2528
     12 N         139.4397  140.9169  161.1485 N.am    1  UNL1       -0.2875
     13 H         137.9212  141.5116  163.3980 H       1  UNL1        0.1508
     14 H         138.7515  140.2287  161.2968 H       1  UNL1        0.1510
     15 C         137.7745  144.1485  163.3237 C.3     1  UNL1        0.0197
     16 C         138.7185  143.3656  164.1873 C.3     1  UNL1        0.0583
     17 C         139.6626  142.5826  165.0509 C.3     1  UNL1        0.0197
     18 C         138.8277  144.5313  165.1249 C.3     1  UNL1        0.0197
     19 C         143.7952  138.7152  165.5737 C.3     1  UNL1        0.1585
     20 C         143.0491  139.1559  166.7981 C.2     1  UNL1        0.2388
     21 O         143.3018  138.4811  168.1138 O.2     1  UNL1       -0.2736
     22 N         142.0504  140.2713  166.7069 N.am    1  UNL1       -0.3063
     23 H         141.8846  140.7141  165.8434 H       1  UNL1        0.1493
     24 C         141.3043  140.7120  167.9313 C.3     1  UNL1        0.0568
     25 C         141.8820  141.7732  168.8202 C.3     1  UNL1        0.0180
     26 C         141.1359  142.2139  170.0445 C.3     1  UNL1        0.0016
     27 C         139.8121  141.5934  170.3801 C.3     1  UNL1        0.0001
     28 C         139.2344  140.5322  169.4912 C.3     1  UNL1        0.0016
     29 C         142.1080  141.4228  168.1652 C.3     1  UNL1        0.0001
     30 C         143.2058  142.3937  168.4847 C.3     1  UNL1        0.0016
     31 C         142.4597  142.8344  169.7090 C.3     1  UNL1        0.0001
     32 C         142.6281  141.3325  167.5958 C.3     1  UNL1        0.0180
     33 C         139.9805  140.0915  168.2668 C.3     1  UNL1        0.0180
@<TRIPOS>BOND
     1    15    16    1
     2    16    17    1
     3    16    18    1
     4    16     9    1
     5     9    10   am
     6    10    11    2
     7    10    12   am
     8    12     8    1
     9     8     7    1
    10     7     1    1
    11     1     2    1
    12     2     3    1
    13     3     4    1
    14     4    19    1
    15    19    20    1
    16    20    21    2
    17    20    22   am
    18    22    24    1
    19    24    25    1
    20    25    26    1
    21    26    27    1
    22    27    28    1
    23    28    29    1
    24    29    30    1
    25    30    31    1
    26    30    32    1
    27    28    33    1
    28     4     5    1
    29     5     6    1
    30     6     1    1
    31    32    24    1
    32    33    24    1
    33    31    26    1
    34     9    13    1
    35    12    14    1
    36    22    23    1
@<TRIPOS>MOLECULE
*****
 33 36 0 0 0
SMALL
GASTEIGER

@<TRIPOS>ATOM
      1 N         139.4700  139.3799  162.1186 N.3     1  UNL1       -0.2689
      2 C         138.4665  140.3031  162.7436 C.3     1  UNL1        0.0897
      3 C         138.0697  140.1189  164.1784 C.3     1  UNL1        0.0900
      4 N         138.6763  139.0116  164.9881 N.3     1  UNL1       -0.2626
      5 C         139.6798  138.0884  164.3631 C.3     1  UNL1        0.0900
      6 C         140.0767  138.2725  162.9283 C.3     1  UNL1        0.0897
      7 C         139.8669  139.5641  160.6838 C.3     1  UNL1        0.0937
      8 C         141.0009  140.4803  160.3310 C.3     1  UNL1        0.1082
      9 N         142.3023  143.0824  163.0301 N.am    1  UNL1       -0.2921
     10 C         142.1100  141.8013  162.2738 C.2     1  UNL1        0.3007
     11 O         142.8343  140.5604  162.7041 O.2     1  UNL1       -0.2528
     12 N         141.1932  141.7613  161.0872 N.am    1  UNL1       -0.2875
     13 H         141.8268  143.8969  162.7477 H       1  UNL1        0.1508
     14 H         140.7178  142.5758  160.8048 H       1  UNL1        0.1510
     15 C         144.3717  143.4513  163.3150 C.3     1  UNL1        0.0197
     16 C         143.2190  143.1225  164.2167 C.3     1  UNL1        0.0583
     17 C         142.0663  142.7936  165.1184 C.3     1  UNL1        0.0197
     18 C         144.1357  143.1625  165.4033 C.3     1  UNL1        0.0197
     19 C         138.2795  138.8274  166.4229 C.3     1  UNL1        0.1585
     20 C         138.9280  139.6552  167.4926 C.2     1  UNL1        0.2388
     21 O         138.4406  139.5664  168.9085 O.2     1  UNL1       -0.2736
     22 N         140.0640  140.5716  167.1466 N.am    1  UNL1       -0.3063
     23 H         140.3839  140.6298  166.2173 H       1  UNL1        0.1493
     24 C         140.7125  141.3993  168.2163 C.3     1  UNL1        0.0568
     25 C         141.9123  140.8738  168.9472 C.3     1  UNL1        0.0180
     26 C         142.5608  141.7015  170.0169 C.3     1  UNL1        0.0016
     27 C         142.0095  143.0548  170.3557 C.3     1  UNL1        0.0001
     28 C         140.8097  143.5803  169.6248 C.3     1  UNL1        0.0016
     29 C         141.4526  140.6052  168.3820 C.3     1  UNL1        0.0001
     30 C         142.4637  139.5206  168.6084 C.3     1  UNL1        0.0016
     31 C         143.1121  140.3483  169.6781 C.3     1  UNL1        0.0001
     32 C         141.2638  140.0461  167.8775 C.3     1  UNL1        0.0180
     33 C         140.1612  142.7525  168.5551 C.3     1  UNL1        0.0180
@<TRIPOS>BOND
     1    15    16    1
     2    16    17    1
     3    16    18    1
     4    16     9    1
     5     9    10   am
     6    10    11    2
     7    10    12   am
     8    12     8    1
     9     8     7    1
    10     7     1    1
    11     1     2    1
    12     2     3    1
    13     3     4    1
    14     4    19    1
    15    19    20    1
    16    20    21    2
    17    20    22   am
    18    22    24    1
    19    24    25    1
    20    25    26    1
    21    26    27    1
    22    27    28    1
    23    28    29    1
    24    29    30    1
    25    30    31    1
    26    30    32    1
    27    28    33    1
    28     4     5    1
    29     5     6    1
    30     6     1    1
    31    32    24    1
    32    33    24    1
    33    31    26    1
    34     9    13    1
    35    12    14    1
    36    22    23    1
