@<TRIPOS>MOLECULE
*****
 30 32 0 0 0
SMALL
GASTEIGER

@<TRIPOS>ATOM
      1 C         141.7444  139.8596  167.0768 C.ar    1  UNL1        0.0864
      2 C         142.8274  140.5412  167.8595 C.ar    1  UNL1        0.0242
      3 C         142.4802  141.6382  168.8219 C.ar    1  UNL1        0.0320
      4 BR        143.5632  142.3198  169.6046 Br      1  UNL1       -0.0493
      5 C         141.0501  142.0534  169.0017 C.ar    1  UNL1       -0.0125
      6 C         140.7030  143.1503  169.9641 C.3     1  UNL1        0.0316
      7 C         139.9671  141.3718  168.2190 C.ar    1  UNL1        0.0344
      8 C         140.3143  140.2749  167.2566 C.ar    1  UNL1        0.1517
      9 N         142.5510  137.9621  163.6858 N.am    1  UNL1       -0.2521
     10 C         142.2039  139.0590  164.6482 C.2     1  UNL1        0.3093
     11 O         141.9691  140.4523  164.1446 O.2     1  UNL1       -0.2521
     12 N         142.0916  138.7626  166.1144 N.am    1  UNL1       -0.2656
     13 H         142.7051  137.0477  164.0164 H       1  UNL1        0.1579
     14 H         142.2456  137.8482  166.4449 H       1  UNL1        0.1565
     15 C         143.0005  139.1476  157.8213 C.3     1  UNL1        0.0538
     16 C         142.8881  138.8513  159.2874 C.ar    1  UNL1        0.0786
     17 C         141.5623  138.4693  159.8759 C.ar    1  UNL1        0.1150
     18 N         141.4500  138.1729  161.3420 N.ar    1  UNL1       -0.2261
     19 C         142.6634  138.2585  162.2196 C.ar    1  UNL1        0.1547
     20 C         143.9892  138.6405  161.6311 C.ar    1  UNL1        0.1328
     21 N         144.1015  138.9368  160.1650 N.ar    1  UNL1       -0.2436
     22 O         139.2313  139.5932  166.4739 O.3     1  UNL1       -0.4716
     23 C         138.5324  140.3248  165.3665 C.3     1  UNL1        0.2361
     24 C         138.3584  139.6704  164.0281 C.3     1  UNL1        0.1744
     25 C         138.7493  138.2347  163.8387 C.3     1  UNL1        0.1024
     26 N         138.5753  137.5803  162.5002 N.3     1  UNL1       -0.2932
     27 C         138.0103  138.3616  161.3511 C.3     1  UNL1        0.1011
     28 C         137.6194  139.7973  161.5405 C.3     1  UNL1        0.1593
     29 O         137.7934  140.4517  162.8790 O.3     1  UNL1       -0.3495
     30 H         137.9605  136.7789  162.6420 H       1  UNL1        0.1234
@<TRIPOS>BOND
     1    15    16    1
     2    16    17   ar
     3    17    18   ar
     4    18    19   ar
     5    19     9    1
     6     9    10   am
     7    10    11    2
     8    10    12   am
     9    12     1    1
    10     1     2   ar
    11     2     3   ar
    12     3     4    1
    13     3     5   ar
    14     5     6    1
    15     5     7   ar
    16     7     8   ar
    17     8    22    1
    18    22    23    1
    19    24    23    1
    20    24    25    1
    21    25    26    1
    22    26    27    1
    23    27    28    1
    24    28    29    1
    25    19    20   ar
    26    20    21   ar
    27    21    16   ar
    28     8     1   ar
    29    29    24    1
    30     9    13    1
    31    12    14    1
    32    26    30    1
@<TRIPOS>MOLECULE
*****
 30 32 0 0 0
SMALL
GASTEIGER

@<TRIPOS>ATOM
      1 C         140.5303  140.4481  167.4045 C.ar    1  UNL1        0.0864
      2 C         140.1151  141.6271  168.2336 C.ar    1  UNL1        0.0242
      3 C         141.1249  142.3383  169.0848 C.ar    1  UNL1        0.0320
      4 BR        140.7097  143.5173  169.9139 Br      1  UNL1       -0.0493
      5 C         142.5499  141.8704  169.1070 C.ar    1  UNL1       -0.0125
      6 C         143.5596  142.5815  169.9582 C.3     1  UNL1        0.0316
      7 C         142.9650  140.6912  168.2779 C.ar    1  UNL1        0.0344
      8 C         141.9552  139.9801  167.4267 C.ar    1  UNL1        0.1517
      9 N         138.4151  139.3332  164.2369 N.am    1  UNL1       -0.2521
     10 C         139.4249  140.0444  165.0882 C.2     1  UNL1        0.3093
     11 O         140.3390  141.0631  164.4745 O.2     1  UNL1       -0.2521
     12 N         139.5205  139.7369  166.5532 N.am    1  UNL1       -0.2656
     13 H         137.8151  138.6647  164.6397 H       1  UNL1        0.1579
     14 H         138.9205  139.0683  166.9561 H       1  UNL1        0.1565
     15 C         138.0327  140.5633  158.3768 C.3     1  UNL1        0.0538
     16 C         138.1283  140.2558  159.8419 C.ar    1  UNL1        0.0786
     17 C         138.7672  138.9783  160.2999 C.ar    1  UNL1        0.1150
     18 N         138.8628  138.6708  161.7650 N.ar    1  UNL1       -0.2261
     19 C         138.3195  139.6408  162.7719 C.ar    1  UNL1        0.1547
     20 C         137.6806  140.9182  162.3138 C.ar    1  UNL1        0.1328
     21 N         137.5850  141.2257  160.8488 N.ar    1  UNL1       -0.2436
     22 O         142.3704  138.8010  166.5975 O.3     1  UNL1       -0.4716
     23 C         143.3760  138.9741  165.4980 C.3     1  UNL1        0.2361
     24 C         143.0367  138.5546  164.0985 C.3     1  UNL1        0.1744
     25 C         141.8376  137.6899  163.8445 C.3     1  UNL1        0.1024
     26 N         141.4983  137.2704  162.4449 N.3     1  UNL1       -0.2932
     27 C         142.3581  137.7157  161.2992 C.3     1  UNL1        0.1011
     28 C         143.5571  138.5804  161.5532 C.3     1  UNL1        0.1593
     29 O         143.8964  138.9999  162.9528 O.3     1  UNL1       -0.3495
     30 H         140.5558  137.6114  162.2557 H       1  UNL1        0.1234
@<TRIPOS>BOND
     1    15    16    1
     2    16    17   ar
     3    17    18   ar
     4    18    19   ar
     5    19     9    1
     6     9    10   am
     7    10    11    2
     8    10    12   am
     9    12     1    1
    10     1     2   ar
    11     2     3   ar
    12     3     4    1
    13     3     5   ar
    14     5     6    1
    15     5     7   ar
    16     7     8   ar
    17     8    22    1
    18    22    23    1
    19    24    23    1
    20    24    25    1
    21    25    26    1
    22    26    27    1
    23    27    28    1
    24    28    29    1
    25    19    20   ar
    26    20    21   ar
    27    21    16   ar
    28     8     1   ar
    29    29    24    1
    30     9    13    1
    31    12    14    1
    32    26    30    1
@<TRIPOS>MOLECULE
*****
 30 32 0 0 0
SMALL
GASTEIGER

@<TRIPOS>ATOM
      1 C         140.4453  142.2398  167.0826 C.ar    1  UNL1        0.0864
      2 C         141.5983  142.6567  167.9467 C.ar    1  UNL1        0.0242
      3 C         142.2757  141.6512  168.8300 C.ar    1  UNL1        0.0320
      4 BR        143.4286  142.0682  169.6941 Br      1  UNL1       -0.0493
      5 C         141.7999  140.2288  168.8492 C.ar    1  UNL1       -0.0125
      6 C         142.4772  139.2233  169.7325 C.3     1  UNL1        0.0316
      7 C         140.6469  139.8119  167.9851 C.ar    1  UNL1        0.0344
      8 C         139.9696  140.8174  167.1018 C.ar    1  UNL1        0.1517
      9 N         139.3800  144.2716  163.8443 N.am    1  UNL1       -0.2521
     10 C         140.0573  143.2662  164.7276 C.2     1  UNL1        0.3093
     11 O         141.0241  142.2816  164.1393 O.2     1  UNL1       -0.2521
     12 N         139.7679  143.2453  166.1993 N.am    1  UNL1       -0.2656
     13 H         138.7456  144.9178  164.2304 H       1  UNL1        0.1579
     14 H         139.1335  143.8915  166.5854 H       1  UNL1        0.1565
     15 C         140.5376  144.3552  157.9576 C.3     1  UNL1        0.0538
     16 C         140.2482  144.3343  159.4292 C.ar    1  UNL1        0.0786
     17 C         139.4072  143.2379  160.0127 C.ar    1  UNL1        0.1150
     18 N         139.1178  143.2170  161.4844 N.ar    1  UNL1       -0.2261
     19 C         139.6694  144.2925  162.3726 C.ar    1  UNL1        0.1547
     20 C         140.5104  145.3890  161.7891 C.ar    1  UNL1        0.1328
     21 N         140.7998  145.4099  160.3174 N.ar    1  UNL1       -0.2436
     22 O         138.8165  140.4004  166.2376 O.3     1  UNL1       -0.4716
     23 C         138.9817  139.2772  165.2573 C.3     1  UNL1        0.2361
     24 C         138.4533  139.4171  163.8604 C.3     1  UNL1        0.1744
     25 C         137.7535  140.6775  163.4460 C.3     1  UNL1        0.1024
     26 N         137.2251  140.8174  162.0492 N.3     1  UNL1       -0.2932
     27 C         137.3965  139.6969  161.0667 C.3     1  UNL1        0.1011
     28 C         138.0963  138.4365  161.4811 C.3     1  UNL1        0.1593
     29 O         138.6247  138.2967  162.8780 O.3     1  UNL1       -0.3495
     30 H         137.6780  141.6364  161.6437 H       1  UNL1        0.1234
@<TRIPOS>BOND
     1    15    16    1
     2    16    17   ar
     3    17    18   ar
     4    18    19   ar
     5    19     9    1
     6     9    10   am
     7    10    11    2
     8    10    12   am
     9    12     1    1
    10     1     2   ar
    11     2     3   ar
    12     3     4    1
    13     3     5   ar
    14     5     6    1
    15     5     7   ar
    16     7     8   ar
    17     8    22    1
    18    22    23    1
    19    24    23    1
    20    24    25    1
    21    25    26    1
    22    26    27    1
    23    27    28    1
    24    28    29    1
    25    19    20   ar
    26    20    21   ar
    27    21    16   ar
    28     8     1   ar
    29    29    24    1
    30     9    13    1
    31    12    14    1
    32    26    30    1
@<TRIPOS>MOLECULE
*****
 30 32 0 0 0
SMALL
GASTEIGER

@<TRIPOS>ATOM
      1 C         141.4381  144.4304  163.6961 C.ar    1  UNL1        0.0864
      2 C         142.5505  143.7258  164.4143 C.ar    1  UNL1        0.0242
      3 C         142.2566  142.9188  165.6442 C.ar    1  UNL1        0.0320
      4 BR        143.3691  142.2142  166.3624 Br      1  UNL1       -0.0493
      5 C         140.8503  142.8166  166.1558 C.ar    1  UNL1       -0.0125
      6 C         140.5564  142.0097  167.3856 C.3     1  UNL1        0.0316
      7 C         139.7378  143.5213  165.4375 C.ar    1  UNL1        0.0344
      8 C         140.0317  144.3282  164.2077 C.ar    1  UNL1        0.1517
      9 N         141.8823  145.4219  159.8791 N.am    1  UNL1       -0.2521
     10 C         141.5885  144.6151  161.1089 C.2     1  UNL1        0.3093
     11 O         141.1511  143.1859  160.9815 O.2     1  UNL1       -0.2521
     12 N         141.7319  145.2374  162.4662 N.am    1  UNL1       -0.2656
     13 H         142.1693  146.3599  159.9627 H       1  UNL1        0.1579
     14 H         142.0190  146.1754  162.5498 H       1  UNL1        0.1565
     15 C         141.3084  142.9328  154.4500 C.3     1  UNL1        0.0538
     16 C         141.4518  143.5551  155.8072 C.ar    1  UNL1        0.0786
     17 C         140.3292  144.3664  156.3828 C.ar    1  UNL1        0.1150
     18 N         140.4727  144.9887  157.7401 N.ar    1  UNL1       -0.2261
     19 C         141.7388  144.7997  158.5218 C.ar    1  UNL1        0.1547
     20 C         142.8615  143.9884  157.9462 C.ar    1  UNL1        0.1328
     21 N         142.7180  143.3661  156.5889 N.ar    1  UNL1       -0.2436
     22 O         138.9192  145.0329  163.4894 O.3     1  UNL1       -0.4716
     23 C         137.6518  144.2987  163.1659 C.3     1  UNL1        0.2361
     24 C         137.7095  142.9836  162.4468 C.3     1  UNL1        0.1744
     25 C         137.3816  141.7148  163.1766 C.3     1  UNL1        0.1024
     26 N         137.4393  140.3996  162.4576 N.3     1  UNL1       -0.2932
     27 C         137.8249  140.3532  161.0088 C.3     1  UNL1        0.1011
     28 C         138.1529  141.6220  160.2790 C.3     1  UNL1        0.1593
     29 O         138.0952  142.9372  160.9980 O.3     1  UNL1       -0.3495
     30 H         136.5103  139.9843  162.5285 H       1  UNL1        0.1234
@<TRIPOS>BOND
     1    15    16    1
     2    16    17   ar
     3    17    18   ar
     4    18    19   ar
     5    19     9    1
     6     9    10   am
     7    10    11    2
     8    10    12   am
     9    12     1    1
    10     1     2   ar
    11     2     3   ar
    12     3     4    1
    13     3     5   ar
    14     5     6    1
    15     5     7   ar
    16     7     8   ar
    17     8    22    1
    18    22    23    1
    19    24    23    1
    20    24    25    1
    21    25    26    1
    22    26    27    1
    23    27    28    1
    24    28    29    1
    25    19    20   ar
    26    20    21   ar
    27    21    16   ar
    28     8     1   ar
    29    29    24    1
    30     9    13    1
    31    12    14    1
    32    26    30    1
@<TRIPOS>MOLECULE
*****
 30 32 0 0 0
SMALL
GASTEIGER

@<TRIPOS>ATOM
      1 C         141.5474  143.9571  161.0403 C.ar    1  UNL1        0.0864
      2 C         142.7674  143.0930  161.1621 C.ar    1  UNL1        0.0242
      3 C         143.6558  143.2148  162.3646 C.ar    1  UNL1        0.0320
      4 BR        144.8758  142.3508  162.4864 Br      1  UNL1       -0.0493
      5 C         143.3240  144.2007  163.4454 C.ar    1  UNL1       -0.0125
      6 C         144.2123  144.3225  164.6479 C.3     1  UNL1        0.0316
      7 C         142.1039  145.0648  163.3236 C.ar    1  UNL1        0.0344
      8 C         141.2156  144.9430  162.1211 C.ar    1  UNL1        0.1517
      9 N         139.9086  144.6837  157.4996 N.am    1  UNL1       -0.2521
     10 C         140.7969  144.8055  158.7021 C.2     1  UNL1        0.3093
     11 O         141.8232  145.8974  158.7690 O.2     1  UNL1       -0.2521
     12 N         140.6590  143.8353  159.8378 N.am    1  UNL1       -0.2656
     13 H         139.2351  143.9670  157.4557 H       1  UNL1        0.1579
     14 H         139.9854  143.1186  159.7939 H       1  UNL1        0.1565
     15 C         140.4603  148.5644  152.9570 C.3     1  UNL1        0.0538
     16 C         140.3224  147.5942  154.0926 C.ar    1  UNL1        0.0786
     17 C         139.3650  147.8803  155.2114 C.ar    1  UNL1        0.1150
     18 N         139.2271  146.9101  156.3470 N.ar    1  UNL1       -0.2261
     19 C         140.0465  145.6539  156.3640 C.ar    1  UNL1        0.1547
     20 C         141.0039  145.3678  155.2452 C.ar    1  UNL1        0.1328
     21 N         141.1418  146.3380  154.1096 N.ar    1  UNL1       -0.2436
     22 O         139.9955  145.8070  161.9993 O.3     1  UNL1       -0.4716
     23 C         138.7444  145.4475  162.7446 C.3     1  UNL1        0.2361
     24 C         138.3079  144.0150  162.8303 C.3     1  UNL1        0.1744
     25 C         137.9370  143.4220  164.1572 C.3     1  UNL1        0.1024
     26 N         137.5005  141.9895  164.2429 N.3     1  UNL1       -0.2932
     27 C         137.4349  141.1499  163.0016 C.3     1  UNL1        0.1011
     28 C         137.8058  141.7429  161.6746 C.3     1  UNL1        0.1593
     29 O         138.2423  143.1755  161.5890 O.3     1  UNL1       -0.3495
     30 H         136.5642  141.9907  164.6474 H       1  UNL1        0.1234
@<TRIPOS>BOND
     1    15    16    1
     2    16    17   ar
     3    17    18   ar
     4    18    19   ar
     5    19     9    1
     6     9    10   am
     7    10    11    2
     8    10    12   am
     9    12     1    1
    10     1     2   ar
    11     2     3   ar
    12     3     4    1
    13     3     5   ar
    14     5     6    1
    15     5     7   ar
    16     7     8   ar
    17     8    22    1
    18    22    23    1
    19    24    23    1
    20    24    25    1
    21    25    26    1
    22    26    27    1
    23    27    28    1
    24    28    29    1
    25    19    20   ar
    26    20    21   ar
    27    21    16   ar
    28     8     1   ar
    29    29    24    1
    30     9    13    1
    31    12    14    1
    32    26    30    1
@<TRIPOS>MOLECULE
*****
 30 32 0 0 0
SMALL
GASTEIGER

@<TRIPOS>ATOM
      1 C         144.0791  140.3152  164.4099 C.ar    1  UNL1        0.0864
      2 C         143.5590  139.4915  165.5505 C.ar    1  UNL1        0.0242
      3 C         142.9968  140.1653  166.7671 C.ar    1  UNL1        0.0320
      4 BR        142.4766  139.3416  167.9076 Br      1  UNL1       -0.0493
      5 C         142.9549  141.6628  166.8431 C.ar    1  UNL1       -0.0125
      6 C         142.3928  142.3366  168.0596 C.3     1  UNL1        0.0316
      7 C         143.4752  142.4864  165.7025 C.ar    1  UNL1        0.0344
      8 C         144.0373  141.8126  164.4859 C.ar    1  UNL1        0.1517
      9 N         144.4172  138.9485  160.6994 N.am    1  UNL1       -0.2521
     10 C         143.8551  139.6222  161.9160 C.2     1  UNL1        0.3093
     11 O         142.5068  140.2769  161.8553 O.2     1  UNL1       -0.2521
     12 N         144.6413  139.6414  163.1933 N.am    1  UNL1       -0.2656
     13 H         145.3021  138.5188  160.7393 H       1  UNL1        0.1579
     14 H         145.5262  139.2117  163.2332 H       1  UNL1        0.1565
     15 C         141.2725  138.8719  155.5901 C.3     1  UNL1        0.0538
     16 C         142.0587  138.8910  156.8674 C.ar    1  UNL1        0.0786
     17 C         143.2118  139.8374  157.0242 C.ar    1  UNL1        0.1150
     18 N         143.9980  139.8565  158.3016 N.ar    1  UNL1       -0.2261
     19 C         143.6310  138.9293  159.4221 C.ar    1  UNL1        0.1547
     20 C         142.4779  137.9830  159.2653 C.ar    1  UNL1        0.1328
     21 N         141.6917  137.9639  157.9879 N.ar    1  UNL1       -0.2436
     22 O         144.5575  142.6363  163.3453 O.3     1  UNL1       -0.4716
     23 C         144.2685  144.1072  163.2893 C.3     1  UNL1        0.2361
     24 C         142.9956  144.5982  162.6659 C.3     1  UNL1        0.1744
     25 C         142.0325  145.4174  163.4730 C.3     1  UNL1        0.1024
     26 N         140.7597  145.9085  162.8497 N.3     1  UNL1       -0.2932
     27 C         140.4498  145.5802  161.4191 C.3     1  UNL1        0.1011
     28 C         141.4128  144.7610  160.6121 C.3     1  UNL1        0.1593
     29 O         142.6858  144.2700  161.2355 O.3     1  UNL1       -0.3495
     30 H         140.7692  146.9258  162.9229 H       1  UNL1        0.1234
@<TRIPOS>BOND
     1    15    16    1
     2    16    17   ar
     3    17    18   ar
     4    18    19   ar
     5    19     9    1
     6     9    10   am
     7    10    11    2
     8    10    12   am
     9    12     1    1
    10     1     2   ar
    11     2     3   ar
    12     3     4    1
    13     3     5   ar
    14     5     6    1
    15     5     7   ar
    16     7     8   ar
    17     8    22    1
    18    22    23    1
    19    24    23    1
    20    24    25    1
    21    25    26    1
    22    26    27    1
    23    27    28    1
    24    28    29    1
    25    19    20   ar
    26    20    21   ar
    27    21    16   ar
    28     8     1   ar
    29    29    24    1
    30     9    13    1
    31    12    14    1
    32    26    30    1
@<TRIPOS>MOLECULE
*****
 30 32 0 0 0
SMALL
GASTEIGER

@<TRIPOS>ATOM
      1 C         141.6370  141.4463  164.4573 C.ar    1  UNL1        0.0864
      2 C         143.0362  141.0729  164.0665 C.ar    1  UNL1        0.0242
      3 C         143.7297  139.9359  164.7568 C.ar    1  UNL1        0.0320
      4 BR        145.1288  139.5625  164.3661 Br      1  UNL1       -0.0493
      5 C         143.0238  139.1724  165.8380 C.ar    1  UNL1       -0.0125
      6 C         143.7171  138.0355  166.5283 C.3     1  UNL1        0.0316
      7 C         141.6245  139.5459  166.2287 C.ar    1  UNL1        0.0344
      8 C         140.9312  140.6828  165.5384 C.ar    1  UNL1        0.1517
      9 N         139.9212  143.6224  161.6164 N.am    1  UNL1       -0.2521
     10 C         140.6146  142.4855  162.3067 C.2     1  UNL1        0.3093
     11 O         140.9789  141.2507  161.5369 O.2     1  UNL1       -0.2521
     12 N         140.9436  142.5833  163.7669 N.am    1  UNL1       -0.2656
     13 H         139.6820  144.4328  162.1216 H       1  UNL1        0.1579
     14 H         140.7045  143.3937  164.2722 H       1  UNL1        0.1565
     15 C         138.6049  143.2311  155.7756 C.3     1  UNL1        0.0538
     16 C         138.9340  143.3289  157.2358 C.ar    1  UNL1        0.0786
     17 C         138.1242  142.5635  158.2400 C.ar    1  UNL1        0.1150
     18 N         138.4533  142.6614  159.7002 N.ar    1  UNL1       -0.2261
     19 C         139.5921  143.5245  160.1562 C.ar    1  UNL1        0.1547
     20 C         140.4019  144.2899  159.1520 C.ar    1  UNL1        0.1328
     21 N         140.0728  144.1921  157.6918 N.ar    1  UNL1       -0.2436
     22 O         139.5319  141.0563  165.9292 O.3     1  UNL1       -0.4716
     23 C         138.3789  140.1989  165.4987 C.3     1  UNL1        0.2361
     24 C         138.1443  139.9342  164.0410 C.3     1  UNL1        0.1744
     25 C         137.4795  140.9733  163.1875 C.3     1  UNL1        0.1024
     26 N         137.2450  140.7086  161.7298 N.3     1  UNL1       -0.2932
     27 C         137.6751  139.4048  161.1256 C.3     1  UNL1        0.1011
     28 C         138.3398  138.3657  161.9791 C.3     1  UNL1        0.1593
     29 O         138.5744  138.6304  163.4368 O.3     1  UNL1       -0.3495
     30 H         137.7279  141.4451  161.2154 H       1  UNL1        0.1234
@<TRIPOS>BOND
     1    15    16    1
     2    16    17   ar
     3    17    18   ar
     4    18    19   ar
     5    19     9    1
     6     9    10   am
     7    10    11    2
     8    10    12   am
     9    12     1    1
    10     1     2   ar
    11     2     3   ar
    12     3     4    1
    13     3     5   ar
    14     5     6    1
    15     5     7   ar
    16     7     8   ar
    17     8    22    1
    18    22    23    1
    19    24    23    1
    20    24    25    1
    21    25    26    1
    22    26    27    1
    23    27    28    1
    24    28    29    1
    25    19    20   ar
    26    20    21   ar
    27    21    16   ar
    28     8     1   ar
    29    29    24    1
    30     9    13    1
    31    12    14    1
    32    26    30    1
@<TRIPOS>MOLECULE
*****
 30 32 0 0 0
SMALL
GASTEIGER

@<TRIPOS>ATOM
      1 C         140.0967  141.7284  166.5507 C.ar    1  UNL1        0.0864
      2 C         140.1745  142.8754  167.5141 C.ar    1  UNL1        0.0242
      3 C         140.5287  142.6261  168.9502 C.ar    1  UNL1        0.0320
      4 BR        140.6064  143.7731  169.9136 Br      1  UNL1       -0.0493
      5 C         140.8052  141.2296  169.4229 C.ar    1  UNL1       -0.0125
      6 C         141.1594  140.9802  170.8589 C.3     1  UNL1        0.0316
      7 C         140.7275  140.0825  168.4594 C.ar    1  UNL1        0.0344
      8 C         140.3733  140.3319  167.0233 C.ar    1  UNL1        0.1517
      9 N         140.4674  142.2782  162.6378 N.am    1  UNL1       -0.2521
     10 C         140.8216  142.0288  164.0739 C.2     1  UNL1        0.3093
     11 O         142.2549  141.8304  164.4694 O.2     1  UNL1       -0.2521
     12 N         139.7425  141.9778  165.1146 N.am    1  UNL1       -0.2656
     13 H         139.5267  142.4083  162.3783 H       1  UNL1        0.1579
     14 H         138.8018  142.1080  164.8550 H       1  UNL1        0.1565
     15 C         144.7837  142.4823  158.4752 C.3     1  UNL1        0.0538
     16 C         143.7047  142.4312  159.5158 C.ar    1  UNL1        0.0786
     17 C         143.1009  141.1148  159.9063 C.ar    1  UNL1        0.1150
     18 N         142.0218  141.0638  160.9470 N.ar    1  UNL1       -0.2261
     19 C         141.5465  142.3292  161.5972 C.ar    1  UNL1        0.1547
     20 C         142.1502  143.6456  161.2067 C.ar    1  UNL1        0.1328
     21 N         143.2293  143.6966  160.1661 N.ar    1  UNL1       -0.2436
     22 O         140.2955  139.1848  166.0599 O.3     1  UNL1       -0.4716
     23 C         138.9611  138.7065  165.5694 C.3     1  UNL1        0.2361
     24 C         138.6165  138.8094  164.1132 C.3     1  UNL1        0.1744
     25 C         138.8397  137.6366  163.2049 C.3     1  UNL1        0.1024
     26 N         138.4951  137.7395  161.7487 N.3     1  UNL1       -0.2932
     27 C         137.9271  139.0151  161.2007 C.3     1  UNL1        0.1011
     28 C         137.7039  140.1878  162.1089 C.3     1  UNL1        0.1593
     29 O         138.0486  140.0849  163.5652 O.3     1  UNL1       -0.3495
     30 H         137.8129  137.0063  161.5551 H       1  UNL1        0.1234
@<TRIPOS>BOND
     1    15    16    1
     2    16    17   ar
     3    17    18   ar
     4    18    19   ar
     5    19     9    1
     6     9    10   am
     7    10    11    2
     8    10    12   am
     9    12     1    1
    10     1     2   ar
    11     2     3   ar
    12     3     4    1
    13     3     5   ar
    14     5     6    1
    15     5     7   ar
    16     7     8   ar
    17     8    22    1
    18    22    23    1
    19    24    23    1
    20    24    25    1
    21    25    26    1
    22    26    27    1
    23    27    28    1
    24    28    29    1
    25    19    20   ar
    26    20    21   ar
    27    21    16   ar
    28     8     1   ar
    29    29    24    1
    30     9    13    1
    31    12    14    1
    32    26    30    1
@<TRIPOS>MOLECULE
*****
 30 32 0 0 0
SMALL
GASTEIGER

@<TRIPOS>ATOM
      1 C         141.1033  139.4498  165.9675 C.ar    1  UNL1        0.0864
      2 C         140.1592  140.0210  166.9834 C.ar    1  UNL1        0.0242
      3 C         140.5804  140.1340  168.4187 C.ar    1  UNL1        0.0320
      4 BR        139.6363  140.7053  169.4346 Br      1  UNL1       -0.0493
      5 C         141.9458  139.6758  168.8379 C.ar    1  UNL1       -0.0125
      6 C         142.3670  139.7888  170.2730 C.3     1  UNL1        0.0316
      7 C         142.8900  139.1045  167.8218 C.ar    1  UNL1        0.0344
      8 C         142.4687  138.9915  166.3867 C.ar    1  UNL1        0.1517
      9 N         140.2665  140.4377  162.2159 N.am    1  UNL1       -0.2521
     10 C         140.6877  140.5507  163.6511 C.2     1  UNL1        0.3093
     11 O         141.1146  141.8777  164.2053 O.2     1  UNL1       -0.2521
     12 N         140.6821  139.3367  164.5322 N.am    1  UNL1       -0.2656
     13 H         139.9864  139.5668  161.8522 H       1  UNL1        0.1579
     14 H         140.4020  138.4658  164.1685 H       1  UNL1        0.1565
     15 C         140.2890  145.2935  158.6916 C.3     1  UNL1        0.0538
     16 C         140.2834  144.0796  159.5727 C.ar    1  UNL1        0.0786
     17 C         141.5785  143.4370  159.9724 C.ar    1  UNL1        0.1150
     18 N         141.5728  142.2230  160.8535 N.ar    1  UNL1       -0.2261
     19 C         140.2722  141.6517  161.3349 C.ar    1  UNL1        0.1547
     20 C         138.9771  142.2943  160.9352 C.ar    1  UNL1        0.1328
     21 N         138.9827  143.5082  160.0541 N.ar    1  UNL1       -0.2436
     22 O         143.4129  138.4202  165.3706 O.3     1  UNL1       -0.4716
     23 C         144.2591  139.3348  164.5355 C.3     1  UNL1        0.2361
     24 C         144.0873  139.3635  163.0457 C.3     1  UNL1        0.1744
     25 C         144.3652  140.6247  162.2828 C.3     1  UNL1        0.1024
     26 N         144.1934  140.6534  160.7930 N.3     1  UNL1       -0.2932
     27 C         143.7438  139.4208  160.0660 C.3     1  UNL1        0.1011
     28 C         143.4659  138.1595  160.8288 C.3     1  UNL1        0.1593
     29 O         143.6377  138.1309  162.3187 O.3     1  UNL1       -0.3495
     30 H         145.0963  140.9157  160.3975 H       1  UNL1        0.1234
@<TRIPOS>BOND
     1    15    16    1
     2    16    17   ar
     3    17    18   ar
     4    18    19   ar
     5    19     9    1
     6     9    10   am
     7    10    11    2
     8    10    12   am
     9    12     1    1
    10     1     2   ar
    11     2     3   ar
    12     3     4    1
    13     3     5   ar
    14     5     6    1
    15     5     7   ar
    16     7     8   ar
    17     8    22    1
    18    22    23    1
    19    24    23    1
    20    24    25    1
    21    25    26    1
    22    26    27    1
    23    27    28    1
    24    28    29    1
    25    19    20   ar
    26    20    21   ar
    27    21    16   ar
    28     8     1   ar
    29    29    24    1
    30     9    13    1
    31    12    14    1
    32    26    30    1
