@<TRIPOS>MOLECULE
*****
 37 41 0 0 0
SMALL
GASTEIGER

@<TRIPOS>ATOM
      1 N         143.2392  140.6768  163.0093 N.3     1  UNL1       -0.2750
      2 C         143.8808  142.0283  162.9003 C.3     1  UNL1        0.0737
      3 C         143.6825  142.8552  161.6646 C.3     1  UNL1        0.0371
      4 C         142.8427  142.3306  160.5379 C.3     1  UNL1        0.0759
      5 C         142.2011  140.9792  160.6468 C.3     1  UNL1        0.0371
      6 C         142.3994  140.1523  161.8826 C.3     1  UNL1        0.0737
      7 C         142.5043  139.9497  168.6460 C.2     1  UNL1        0.2484
      8 O         142.9368  138.8180  169.5303 O.2     1  UNL1       -0.2699
      9 N         142.8153  139.9164  167.1790 N.am    1  UNL1       -0.2760
     10 C         142.3827  141.0483  166.2948 C.3     1  UNL1        0.0950
     11 C         142.6937  141.0150  164.8277 C.3     1  UNL1        0.0362
     12 C         143.4374  139.8499  164.2450 C.3     1  UNL1        0.0487
     13 C         144.1122  138.9720  163.2331 C.3     1  UNL1        0.0161
     14 C         143.8700  138.7181  165.1292 C.3     1  UNL1        0.0362
     15 C         143.5589  138.7514  166.5963 C.3     1  UNL1        0.0950
     16 C         144.0141  142.3226  169.6900 C.3     1  UNL1        0.0312
     17 C         142.5155  142.3012  169.7507 C.ar    1  UNL1       -0.0178
     18 C         141.7718  143.4663  170.3334 C.ar    1  UNL1       -0.0041
     19 C         140.2732  143.4449  170.3942 C.ar    1  UNL1       -0.0006
     20 C         139.5183  142.2585  169.8723 C.ar    1  UNL1       -0.0041
     21 C         140.2620  141.0935  169.2896 C.ar    1  UNL1       -0.0178
     22 C         139.5070  139.9070  168.7676 C.3     1  UNL1        0.0312
     23 C         141.7606  141.1148  169.2288 C.ar    1  UNL1        0.0457
     24 N         142.6444  143.1575  159.3022 N.pl3   1  UNL1       -0.3051
     25 C         143.4970  142.9144  158.0923 C.ar    1  UNL1        0.0480
     26 C         142.9280  143.1217  156.7199 C.ar    1  UNL1        0.0145
     27 C         143.7806  142.8786  155.5100 C.ar    1  UNL1        0.0013
     28 C         145.2021  142.4282  155.6723 C.ar    1  UNL1        0.0001
     29 C         145.7711  142.2209  157.0447 C.ar    1  UNL1        0.0013
     30 C         144.9185  142.4640  158.2546 C.ar    1  UNL1        0.0145
     31 C         141.5935  144.2275  159.2765 C.3     1  UNL1        0.1177
     32 C         140.5888  144.3188  160.3866 C.ar    1  UNL1       -0.0024
     33 C         140.6838  145.4253  161.3949 C.ar    1  UNL1       -0.0026
     34 C         139.6791  145.5165  162.5050 C.ar    1  UNL1       -0.0003
     35 C         138.5796  144.5014  162.6069 C.ar    1  UNL1       -0.0000
     36 C         138.4847  143.3949  161.5986 C.ar    1  UNL1       -0.0003
     37 C         139.4893  143.3036  160.4884 C.ar    1  UNL1       -0.0026
@<TRIPOS>BOND
     1    16    17    1
     2    17    18   ar
     3    18    19   ar
     4    19    20   ar
     5    20    21   ar
     6    21    22    1
     7    21    23   ar
     8    23     7    1
     9     7     8    2
    10     7     9   am
    11     9    10    1
    12    10    11    1
    13    11    12    1
    14    12    13    1
    15    12     1    1
    16     1     2    1
    17     2     3    1
    18     3     4    1
    19     4    24    1
    20    24    31    1
    21    31    32    1
    22    32    33   ar
    23    33    34   ar
    24    34    35   ar
    25    35    36   ar
    26    36    37   ar
    27    24    25    1
    28    25    26   ar
    29    26    27   ar
    30    27    28   ar
    31    28    29   ar
    32    29    30   ar
    33     4     5    1
    34     5     6    1
    35    12    14    1
    36    14    15    1
    37    23    17   ar
    38    15     9    1
    39     6     1    1
    40    37    32   ar
    41    30    25   ar
@<TRIPOS>MOLECULE
*****
 37 41 0 0 0
SMALL
GASTEIGER

@<TRIPOS>ATOM
      1 N         140.1167  139.0998  163.6346 N.3     1  UNL1       -0.2750
      2 C         139.9128  140.2546  162.6992 C.3     1  UNL1        0.0737
      3 C         140.6289  140.2879  161.3816 C.3     1  UNL1        0.0371
      4 C         141.5489  139.1666  160.9994 C.3     1  UNL1        0.0759
      5 C         141.7529  138.0119  161.9348 C.3     1  UNL1        0.0371
      6 C         141.0367  137.9785  163.2525 C.3     1  UNL1        0.0737
      7 C         139.9739  140.3691  169.2213 C.2     1  UNL1        0.2484
      8 O         138.9074  140.0931  170.2393 O.2     1  UNL1       -0.2699
      9 N         139.7828  139.9349  167.7983 N.am    1  UNL1       -0.2760
     10 C         140.8494  140.2109  166.7802 C.3     1  UNL1        0.0950
     11 C         140.6583  139.7767  165.3572 C.3     1  UNL1        0.0362
     12 C         139.4006  139.0665  164.9523 C.3     1  UNL1        0.0487
     13 C         138.3916  138.3679  164.0897 C.3     1  UNL1        0.0161
     14 C         138.3341  138.7905  165.9703 C.3     1  UNL1        0.0362
     15 C         138.5252  139.2247  167.3933 C.3     1  UNL1        0.0950
     16 C         142.4221  138.7916  169.9411 C.3     1  UNL1        0.0312
     17 C         142.4557  140.2906  169.9861 C.ar    1  UNL1       -0.0178
     18 C         143.7132  141.0008  170.3911 C.ar    1  UNL1       -0.0041
     19 C         143.7468  142.4997  170.4361 C.ar    1  UNL1       -0.0006
     20 C         142.5228  143.2885  170.0762 C.ar    1  UNL1       -0.0041
     21 C         141.2652  142.5783  169.6713 C.ar    1  UNL1       -0.0178
     22 C         140.0411  143.3670  169.3114 C.3     1  UNL1        0.0312
     23 C         141.2316  141.0793  169.6262 C.ar    1  UNL1        0.0457
     24 N         142.2651  139.1999  159.6819 N.pl3   1  UNL1       -0.3051
     25 C         141.7631  138.3747  158.5343 C.ar    1  UNL1        0.0480
     26 C         140.3231  138.4597  158.1227 C.ar    1  UNL1        0.0145
     27 C         139.8211  137.6345  156.9752 C.ar    1  UNL1        0.0013
     28 C         140.7590  136.7244  156.2390 C.ar    1  UNL1        0.0001
     29 C         142.1990  136.6394  156.6505 C.ar    1  UNL1        0.0013
     30 C         142.7010  137.4646  157.7981 C.ar    1  UNL1        0.0145
     31 C         143.4833  140.0585  159.5119 C.3     1  UNL1        0.1177
     32 C         143.9597  140.9171  160.6458 C.ar    1  UNL1       -0.0024
     33 C         143.8244  142.4089  160.5651 C.ar    1  UNL1       -0.0026
     34 C         144.3008  143.2676  161.6990 C.ar    1  UNL1       -0.0003
     35 C         144.9125  142.6346  162.9135 C.ar    1  UNL1       -0.0000
     36 C         145.0478  141.1429  162.9943 C.ar    1  UNL1       -0.0003
     37 C         144.5714  140.2842  161.8604 C.ar    1  UNL1       -0.0026
@<TRIPOS>BOND
     1    16    17    1
     2    17    18   ar
     3    18    19   ar
     4    19    20   ar
     5    20    21   ar
     6    21    22    1
     7    21    23   ar
     8    23     7    1
     9     7     8    2
    10     7     9   am
    11     9    10    1
    12    10    11    1
    13    11    12    1
    14    12    13    1
    15    12     1    1
    16     1     2    1
    17     2     3    1
    18     3     4    1
    19     4    24    1
    20    24    31    1
    21    31    32    1
    22    32    33   ar
    23    33    34   ar
    24    34    35   ar
    25    35    36   ar
    26    36    37   ar
    27    24    25    1
    28    25    26   ar
    29    26    27   ar
    30    27    28   ar
    31    28    29   ar
    32    29    30   ar
    33     4     5    1
    34     5     6    1
    35    12    14    1
    36    14    15    1
    37    23    17   ar
    38    15     9    1
    39     6     1    1
    40    37    32   ar
    41    30    25   ar
@<TRIPOS>MOLECULE
*****
 37 41 0 0 0
SMALL
GASTEIGER

@<TRIPOS>ATOM
      1 N         140.4963  143.6491  162.9161 N.3     1  UNL1       -0.2750
      2 C         139.2663  143.4790  163.7576 C.3     1  UNL1        0.0737
      3 C         139.3385  142.7133  165.0455 C.3     1  UNL1        0.0371
      4 C         140.6408  142.1177  165.4918 C.3     1  UNL1        0.0759
      5 C         141.8708  142.2877  164.6503 C.3     1  UNL1        0.0371
      6 C         141.7985  143.0534  163.3624 C.3     1  UNL1        0.0737
      7 C         139.9823  143.6928  157.2086 C.2     1  UNL1        0.2484
      8 O         139.9633  144.8524  156.2574 O.2     1  UNL1       -0.2699
      9 N         140.1295  143.9334  158.6818 N.am    1  UNL1       -0.2760
     10 C         140.1486  142.7737  159.6330 C.3     1  UNL1        0.0950
     11 C         140.2958  143.0143  161.1063 C.3     1  UNL1        0.0362
     12 C         140.4240  144.4148  161.6283 C.3     1  UNL1        0.0487
     13 C         140.5773  145.5492  162.5976 C.3     1  UNL1        0.0161
     14 C         140.4049  145.5744  160.6771 C.3     1  UNL1        0.0362
     15 C         140.2577  145.3338  159.2039 C.3     1  UNL1        0.0950
     16 C         137.2683  142.4582  156.8765 C.3     1  UNL1        0.0312
     17 C         138.4972  141.6751  156.5205 C.ar    1  UNL1       -0.0178
     18 C         138.3691  140.2747  155.9985 C.ar    1  UNL1       -0.0041
     19 C         139.5979  139.4916  155.6425 C.ar    1  UNL1       -0.0006
     20 C         140.9549  140.1089  155.8086 C.ar    1  UNL1       -0.0041
     21 C         141.0830  141.5092  156.3306 C.ar    1  UNL1       -0.0178
     22 C         142.4400  142.1265  156.4967 C.3     1  UNL1        0.0312
     23 C         139.8541  142.2923  156.6866 C.ar    1  UNL1        0.0457
     24 N         140.7132  141.3520  166.7796 N.pl3   1  UNL1       -0.3051
     25 C         141.3624  141.9682  167.9831 C.ar    1  UNL1        0.0480
     26 C         142.7891  141.6439  168.3143 C.ar    1  UNL1        0.0145
     27 C         143.4383  142.2601  169.5178 C.ar    1  UNL1        0.0013
     28 C         142.6610  143.2006  170.3903 C.ar    1  UNL1        0.0001
     29 C         141.2344  143.5249  170.0592 C.ar    1  UNL1        0.0013
     30 C         140.5851  142.9087  168.8556 C.ar    1  UNL1        0.0145
     31 C         140.1361  139.9698  166.8637 C.3     1  UNL1        0.1177
     32 C         140.1653  139.0706  165.6635 C.ar    1  UNL1       -0.0024
     33 C         141.4569  138.4457  165.2259 C.ar    1  UNL1       -0.0026
     34 C         141.4861  137.5465  164.0257 C.ar    1  UNL1       -0.0003
     35 C         140.2239  137.2722  163.2631 C.ar    1  UNL1       -0.0000
     36 C         138.9324  137.8971  163.7007 C.ar    1  UNL1       -0.0003
     37 C         138.9032  138.7964  164.9009 C.ar    1  UNL1       -0.0026
@<TRIPOS>BOND
     1    16    17    1
     2    17    18   ar
     3    18    19   ar
     4    19    20   ar
     5    20    21   ar
     6    21    22    1
     7    21    23   ar
     8    23     7    1
     9     7     8    2
    10     7     9   am
    11     9    10    1
    12    10    11    1
    13    11    12    1
    14    12    13    1
    15    12     1    1
    16     1     2    1
    17     2     3    1
    18     3     4    1
    19     4    24    1
    20    24    31    1
    21    31    32    1
    22    32    33   ar
    23    33    34   ar
    24    34    35   ar
    25    35    36   ar
    26    36    37   ar
    27    24    25    1
    28    25    26   ar
    29    26    27   ar
    30    27    28   ar
    31    28    29   ar
    32    29    30   ar
    33     4     5    1
    34     5     6    1
    35    12    14    1
    36    14    15    1
    37    23    17   ar
    38    15     9    1
    39     6     1    1
    40    37    32   ar
    41    30    25   ar
@<TRIPOS>MOLECULE
*****
 37 41 0 0 0
SMALL
GASTEIGER

@<TRIPOS>ATOM
      1 N         140.4905  143.6666  162.9330 N.3     1  UNL1       -0.2750
      2 C         141.8108  143.1576  163.4309 C.3     1  UNL1        0.0737
      3 C         141.8818  142.3908  164.7181 C.3     1  UNL1        0.0371
      4 C         140.6326  142.1329  165.5074 C.3     1  UNL1        0.0759
      5 C         139.3124  142.6418  165.0095 C.3     1  UNL1        0.0371
      6 C         139.2414  143.4087  163.7222 C.3     1  UNL1        0.0737
      7 C         139.9888  143.7150  157.2244 C.2     1  UNL1        0.2484
      8 O         139.9695  144.8755  156.2743 O.2     1  UNL1       -0.2699
      9 N         140.1324  143.9545  158.6982 N.am    1  UNL1       -0.2760
     10 C         140.1517  142.7938  159.6482 C.3     1  UNL1        0.0950
     11 C         140.2952  143.0333  161.1220 C.3     1  UNL1        0.0362
     12 C         140.4195  144.4334  161.6457 C.3     1  UNL1        0.0487
     13 C         140.5685  145.5672  162.6165 C.3     1  UNL1        0.0161
     14 C         140.4002  145.5940  160.6957 C.3     1  UNL1        0.0362
     15 C         140.2567  145.3545  159.2219 C.3     1  UNL1        0.0950
     16 C         142.4506  142.1576  156.5071 C.3     1  UNL1        0.0312
     17 C         141.0954  141.5362  156.3420 C.ar    1  UNL1       -0.0178
     18 C         140.9711  140.1361  155.8184 C.ar    1  UNL1       -0.0041
     19 C         139.6159  139.5146  155.6533 C.ar    1  UNL1       -0.0006
     20 C         138.3850  140.2933  156.0119 C.ar    1  UNL1       -0.0041
     21 C         138.5094  141.6933  156.5356 C.ar    1  UNL1       -0.0178
     22 C         137.2784  142.4720  156.8943 C.3     1  UNL1        0.0312
     23 C         139.8646  142.3148  156.7007 C.ar    1  UNL1        0.0457
     24 N         140.7036  141.3661  166.7946 N.pl3   1  UNL1       -0.3051
     25 C         141.3559  141.9793  167.9980 C.ar    1  UNL1        0.0480
     26 C         142.7775  141.6397  168.3353 C.ar    1  UNL1        0.0145
     27 C         143.4299  142.2529  169.5387 C.ar    1  UNL1        0.0013
     28 C         142.6607  143.2058  170.4049 C.ar    1  UNL1        0.0001
     29 C         141.2390  143.5455  170.0676 C.ar    1  UNL1        0.0013
     30 C         140.5867  142.9322  168.8642 C.ar    1  UNL1        0.0145
     31 C         140.1220  139.9858  166.8783 C.3     1  UNL1        0.1177
     32 C         140.1856  139.0720  165.6905 C.ar    1  UNL1       -0.0024
     33 C         138.9374  138.7527  164.9223 C.ar    1  UNL1       -0.0026
     34 C         139.0010  137.8388  163.7345 C.ar    1  UNL1       -0.0003
     35 C         140.3126  137.2443  163.3150 C.ar    1  UNL1       -0.0000
     36 C         141.5608  137.5635  164.0832 C.ar    1  UNL1       -0.0003
     37 C         141.4973  138.4774  165.2710 C.ar    1  UNL1       -0.0026
@<TRIPOS>BOND
     1    16    17    1
     2    17    18   ar
     3    18    19   ar
     4    19    20   ar
     5    20    21   ar
     6    21    22    1
     7    21    23   ar
     8    23     7    1
     9     7     8    2
    10     7     9   am
    11     9    10    1
    12    10    11    1
    13    11    12    1
    14    12    13    1
    15    12     1    1
    16     1     2    1
    17     2     3    1
    18     3     4    1
    19     4    24    1
    20    24    31    1
    21    31    32    1
    22    32    33   ar
    23    33    34   ar
    24    34    35   ar
    25    35    36   ar
    26    36    37   ar
    27    24    25    1
    28    25    26   ar
    29    26    27   ar
    30    27    28   ar
    31    28    29   ar
    32    29    30   ar
    33     4     5    1
    34     5     6    1
    35    12    14    1
    36    14    15    1
    37    23    17   ar
    38    15     9    1
    39     6     1    1
    40    37    32   ar
    41    30    25   ar
@<TRIPOS>MOLECULE
*****
 37 41 0 0 0
SMALL
GASTEIGER

@<TRIPOS>ATOM
      1 N         142.8651  140.4679  163.0009 N.3     1  UNL1       -0.2750
      2 C         143.4068  141.8573  162.8394 C.3     1  UNL1        0.0737
      3 C         143.1301  142.6288  161.5830 C.3     1  UNL1        0.0371
      4 C         142.3117  142.0109  160.4884 C.3     1  UNL1        0.0759
      5 C         141.7700  140.6215  160.6499 C.3     1  UNL1        0.0371
      6 C         142.0467  139.8500  161.9062 C.3     1  UNL1        0.0737
      7 C         142.4552  139.9754  168.6958 C.2     1  UNL1        0.2484
      8 O         142.9498  138.8865  169.6011 O.2     1  UNL1       -0.2699
      9 N         142.6841  139.8824  167.2163 N.am    1  UNL1       -0.2760
     10 C         142.1894  140.9713  166.3109 C.3     1  UNL1        0.0950
     11 C         142.4183  140.8784  164.8314 C.3     1  UNL1        0.0362
     12 C         143.1419  139.6964  164.2572 C.3     1  UNL1        0.0487
     13 C         143.7693  138.7825  163.2467 C.3     1  UNL1        0.0161
     14 C         143.6365  138.6076  165.1626 C.3     1  UNL1        0.0362
     15 C         143.4076  138.7005  166.6421 C.3     1  UNL1        0.0950
     16 C         139.4624  139.9472  168.9012 C.3     1  UNL1        0.0312
     17 C         140.2353  141.1432  169.3726 C.ar    1  UNL1       -0.0178
     18 C         139.5118  142.3251  169.9468 C.ar    1  UNL1       -0.0041
     19 C         140.2847  143.5211  170.4182 C.ar    1  UNL1       -0.0006
     20 C         141.7811  143.5352  170.3155 C.ar    1  UNL1       -0.0041
     21 C         142.5045  142.3533  169.7414 C.ar    1  UNL1       -0.0178
     22 C         144.0010  142.3673  169.6386 C.3     1  UNL1        0.0312
     23 C         141.7316  141.1573  169.2699 C.ar    1  UNL1        0.0457
     24 N         142.0349  142.7823  159.2321 N.pl3   1  UNL1       -0.3051
     25 C         142.9842  142.6954  158.0740 C.ar    1  UNL1        0.0480
     26 C         142.5520  143.1566  156.7137 C.ar    1  UNL1        0.0145
     27 C         143.5013  143.0697  155.5556 C.ar    1  UNL1        0.0013
     28 C         144.8828  142.5215  155.7578 C.ar    1  UNL1        0.0001
     29 C         145.3150  142.0603  157.1181 C.ar    1  UNL1        0.0013
     30 C         144.3658  142.1472  158.2762 C.ar    1  UNL1        0.0145
     31 C         140.8087  143.6408  159.1339 C.3     1  UNL1        0.1177
     32 C         139.9837  143.9126  160.3568 C.ar    1  UNL1       -0.0024
     33 C         140.2244  145.1546  161.1630 C.ar    1  UNL1       -0.0026
     34 C         139.3995  145.4264  162.3859 C.ar    1  UNL1       -0.0003
     35 C         138.3339  144.4565  162.8027 C.ar    1  UNL1       -0.0000
     36 C         138.0932  143.2146  161.9966 C.ar    1  UNL1       -0.0003
     37 C         138.9182  142.9427  160.7736 C.ar    1  UNL1       -0.0026
@<TRIPOS>BOND
     1    16    17    1
     2    17    18   ar
     3    18    19   ar
     4    19    20   ar
     5    20    21   ar
     6    21    22    1
     7    21    23   ar
     8    23     7    1
     9     7     8    2
    10     7     9   am
    11     9    10    1
    12    10    11    1
    13    11    12    1
    14    12    13    1
    15    12     1    1
    16     1     2    1
    17     2     3    1
    18     3     4    1
    19     4    24    1
    20    24    31    1
    21    31    32    1
    22    32    33   ar
    23    33    34   ar
    24    34    35   ar
    25    35    36   ar
    26    36    37   ar
    27    24    25    1
    28    25    26   ar
    29    26    27   ar
    30    27    28   ar
    31    28    29   ar
    32    29    30   ar
    33     4     5    1
    34     5     6    1
    35    12    14    1
    36    14    15    1
    37    23    17   ar
    38    15     9    1
    39     6     1    1
    40    37    32   ar
    41    30    25   ar
@<TRIPOS>MOLECULE
*****
 37 41 0 0 0
SMALL
GASTEIGER

@<TRIPOS>ATOM
      1 N         140.3097  138.7195  160.2174 N.3     1  UNL1       -0.2750
      2 C         141.7559  138.3666  160.0332 C.3     1  UNL1        0.0737
      3 C         142.2656  137.9749  158.6779 C.3     1  UNL1        0.0371
      4 C         141.3291  137.9362  157.5068 C.3     1  UNL1        0.0759
      5 C         139.8829  138.2890  157.6910 C.3     1  UNL1        0.0371
      6 C         139.3732  138.6807  159.0464 C.3     1  UNL1        0.0737
      7 C         140.5960  142.1277  164.8156 C.2     1  UNL1        0.2484
      8 O         139.7682  142.1204  166.0664 O.2     1  UNL1       -0.2699
      9 N         140.3307  141.1222  163.7347 N.am    1  UNL1       -0.2760
     10 C         141.1586  141.1296  162.4838 C.3     1  UNL1        0.0950
     11 C         140.8933  140.1241  161.4029 C.3     1  UNL1        0.0362
     12 C         139.8000  139.1111  161.5727 C.3     1  UNL1        0.0487
     13 C         138.8837  137.9622  161.2719 C.3     1  UNL1        0.0161
     14 C         138.9721  139.1038  162.8236 C.3     1  UNL1        0.0362
     15 C         139.2375  140.1093  163.9045 C.3     1  UNL1        0.0950
     16 C         139.9946  144.7891  163.5685 C.3     1  UNL1        0.0312
     17 C         141.3886  144.4713  164.0222 C.ar    1  UNL1       -0.0178
     18 C         142.4819  145.4842  163.8523 C.ar    1  UNL1       -0.0041
     19 C         143.8758  145.1664  164.3060 C.ar    1  UNL1       -0.0006
     20 C         144.1765  143.8357  164.9296 C.ar    1  UNL1       -0.0041
     21 C         143.0833  142.8229  165.0995 C.ar    1  UNL1       -0.0178
     22 C         143.3840  141.4921  165.7231 C.3     1  UNL1        0.0312
     23 C         141.6893  143.1407  164.6457 C.ar    1  UNL1        0.0457
     24 N         141.8387  137.5445  156.1515 N.pl3   1  UNL1       -0.3051
     25 C         142.7715  138.4548  155.4091 C.ar    1  UNL1        0.0480
     26 C         142.2368  139.6719  154.7142 C.ar    1  UNL1        0.0145
     27 C         143.1697  140.5821  153.9718 C.ar    1  UNL1        0.0013
     28 C         144.6372  140.2753  153.9242 C.ar    1  UNL1        0.0001
     29 C         145.1718  139.0582  154.6191 C.ar    1  UNL1        0.0013
     30 C         144.2390  138.1480  155.3615 C.ar    1  UNL1        0.0145
     31 C         141.4153  136.2425  155.5386 C.3     1  UNL1        0.1177
     32 C         142.0640  134.9623  155.9748 C.ar    1  UNL1       -0.0024
     33 C         143.2246  134.9953  156.9247 C.ar    1  UNL1       -0.0026
     34 C         143.8732  133.7151  157.3609 C.ar    1  UNL1       -0.0003
     35 C         143.3614  132.4020  156.8475 C.ar    1  UNL1       -0.0000
     36 C         142.2009  132.3690  155.8977 C.ar    1  UNL1       -0.0003
     37 C         141.5522  133.6492  155.4614 C.ar    1  UNL1       -0.0026
@<TRIPOS>BOND
     1    16    17    1
     2    17    18   ar
     3    18    19   ar
     4    19    20   ar
     5    20    21   ar
     6    21    22    1
     7    21    23   ar
     8    23     7    1
     9     7     8    2
    10     7     9   am
    11     9    10    1
    12    10    11    1
    13    11    12    1
    14    12    13    1
    15    12     1    1
    16     1     2    1
    17     2     3    1
    18     3     4    1
    19     4    24    1
    20    24    31    1
    21    31    32    1
    22    32    33   ar
    23    33    34   ar
    24    34    35   ar
    25    35    36   ar
    26    36    37   ar
    27    24    25    1
    28    25    26   ar
    29    26    27   ar
    30    27    28   ar
    31    28    29   ar
    32    29    30   ar
    33     4     5    1
    34     5     6    1
    35    12    14    1
    36    14    15    1
    37    23    17   ar
    38    15     9    1
    39     6     1    1
    40    37    32   ar
    41    30    25   ar
@<TRIPOS>MOLECULE
*****
 37 41 0 0 0
SMALL
GASTEIGER

@<TRIPOS>ATOM
      1 N         140.2414  144.5033  160.5216 N.3     1  UNL1       -0.2750
      2 C         141.1439  145.5008  159.8579 C.3     1  UNL1        0.0737
      3 C         141.2745  145.5161  158.3636 C.3     1  UNL1        0.0371
      4 C         140.5026  144.5341  157.5332 C.3     1  UNL1        0.0759
      5 C         139.6001  143.5366  158.1969 C.3     1  UNL1        0.0371
      6 C         139.4696  143.5212  159.6912 C.3     1  UNL1        0.0737
      7 C         140.3479  141.6105  165.4676 C.2     1  UNL1        0.2484
      8 O         140.1300  142.1002  166.8685 O.2     1  UNL1       -0.2699
      9 N         140.2689  142.5697  164.3170 N.am    1  UNL1       -0.2760
     10 C         140.4869  142.0799  162.9160 C.3     1  UNL1        0.0950
     11 C         140.4079  143.0391  161.7655 C.3     1  UNL1        0.0362
     12 C         140.1108  144.4880  162.0159 C.3     1  UNL1        0.0487
     13 C         139.8591  145.9421  161.7474 C.3     1  UNL1        0.0161
     14 C         139.8928  144.9776  163.4168 C.3     1  UNL1        0.0362
     15 C         139.9719  144.0185  164.5674 C.3     1  UNL1        0.0950
     16 C         138.0999  139.6701  165.0423 C.3     1  UNL1        0.0312
     17 C         139.5210  139.1915  165.0045 C.ar    1  UNL1       -0.0178
     18 C         139.8180  137.7427  164.7541 C.ar    1  UNL1       -0.0041
     19 C         141.2391  137.2641  164.7163 C.ar    1  UNL1       -0.0006
     20 C         142.3632  138.2343  164.9289 C.ar    1  UNL1       -0.0041
     21 C         142.0661  139.6831  165.1794 C.ar    1  UNL1       -0.0178
     22 C         143.1901  140.6533  165.3920 C.3     1  UNL1        0.0312
     23 C         140.6450  140.1617  165.2171 C.ar    1  UNL1        0.0457
     24 N         140.6331  144.5494  156.0390 N.pl3   1  UNL1       -0.3051
     25 C         141.8242  143.9156  155.3836 C.ar    1  UNL1        0.0480
     26 C         142.9019  144.7760  154.7934 C.ar    1  UNL1        0.0145
     27 C         144.0929  144.1422  154.1380 C.ar    1  UNL1        0.0013
     28 C         144.2064  142.6479  154.0727 C.ar    1  UNL1        0.0001
     29 C         143.1287  141.7875  154.6629 C.ar    1  UNL1        0.0013
     30 C         141.9376  142.4213  155.3183 C.ar    1  UNL1        0.0145
     31 C         139.5724  145.1986  155.2001 C.3     1  UNL1        0.1177
     32 C         139.5847  146.6842  154.9933 C.ar    1  UNL1       -0.0024
     33 C         138.8372  147.5790  155.9372 C.ar    1  UNL1       -0.0026
     34 C         138.8495  149.0646  155.7303 C.ar    1  UNL1       -0.0003
     35 C         139.6092  149.6554  154.5798 C.ar    1  UNL1       -0.0000
     36 C         140.3566  148.7607  153.6361 C.ar    1  UNL1       -0.0003
     37 C         140.3444  147.2751  153.8428 C.ar    1  UNL1       -0.0026
@<TRIPOS>BOND
     1    16    17    1
     2    17    18   ar
     3    18    19   ar
     4    19    20   ar
     5    20    21   ar
     6    21    22    1
     7    21    23   ar
     8    23     7    1
     9     7     8    2
    10     7     9   am
    11     9    10    1
    12    10    11    1
    13    11    12    1
    14    12    13    1
    15    12     1    1
    16     1     2    1
    17     2     3    1
    18     3     4    1
    19     4    24    1
    20    24    31    1
    21    31    32    1
    22    32    33   ar
    23    33    34   ar
    24    34    35   ar
    25    35    36   ar
    26    36    37   ar
    27    24    25    1
    28    25    26   ar
    29    26    27   ar
    30    27    28   ar
    31    28    29   ar
    32    29    30   ar
    33     4     5    1
    34     5     6    1
    35    12    14    1
    36    14    15    1
    37    23    17   ar
    38    15     9    1
    39     6     1    1
    40    37    32   ar
    41    30    25   ar
@<TRIPOS>MOLECULE
*****
 37 41 0 0 0
SMALL
GASTEIGER

@<TRIPOS>ATOM
      1 N         141.1092  143.4204  162.7929 N.3     1  UNL1       -0.2750
      2 C         142.3524  142.8495  163.4083 C.3     1  UNL1        0.0737
      3 C         142.2795  142.1466  164.7314 C.3     1  UNL1        0.0371
      4 C         140.9636  142.0146  165.4391 C.3     1  UNL1        0.0759
      5 C         139.7204  142.5854  164.8237 C.3     1  UNL1        0.0371
      6 C         139.7933  143.2884  163.5005 C.3     1  UNL1        0.0737
      7 C         142.1196  143.2590  157.1541 C.2     1  UNL1        0.2484
      8 O         142.0515  144.3593  156.1370 O.2     1  UNL1       -0.2699
      9 N         141.8071  143.5471  158.5927 N.am    1  UNL1       -0.2760
     10 C         141.8752  142.4467  159.6099 C.3     1  UNL1        0.0950
     11 C         141.5627  142.7348  161.0484 C.3     1  UNL1        0.0362
     12 C         141.1821  144.1233  161.4697 C.3     1  UNL1        0.0487
     13 C         140.7762  145.2676  162.3506 C.3     1  UNL1        0.0161
     14 C         141.1140  145.2235  160.4525 C.3     1  UNL1        0.0362
     15 C         141.4265  144.9354  159.0140 C.3     1  UNL1        0.0950
     16 C         140.0244  141.3786  156.1176 C.3     1  UNL1        0.0312
     17 C         141.4526  140.9304  156.2146 C.ar    1  UNL1       -0.0178
     18 C         141.8332  139.5420  155.7933 C.ar    1  UNL1       -0.0041
     19 C         143.2614  139.0938  155.8903 C.ar    1  UNL1       -0.0006
     20 C         144.3090  140.0339  156.4086 C.ar    1  UNL1       -0.0041
     21 C         143.9283  141.4223  156.8298 C.ar    1  UNL1       -0.0178
     22 C         144.9759  142.3626  157.3481 C.3     1  UNL1        0.0312
     23 C         142.5002  141.8705  156.7328 C.ar    1  UNL1        0.0457
     24 N         140.8906  141.3117  166.7622 N.pl3   1  UNL1       -0.3051
     25 C         141.4400  141.9704  167.9927 C.ar    1  UNL1        0.0480
     26 C         140.5882  142.9243  168.7766 C.ar    1  UNL1        0.0145
     27 C         141.1375  143.5830  170.0072 C.ar    1  UNL1        0.0013
     28 C         142.5387  143.2878  170.4539 C.ar    1  UNL1        0.0001
     29 C         143.3905  142.3338  169.6699 C.ar    1  UNL1        0.0013
     30 C         142.8412  141.6752  168.4394 C.ar    1  UNL1        0.0145
     31 C         140.2682  139.9500  166.8547 C.3     1  UNL1        0.1177
     32 C         140.2504  139.0504  165.6545 C.ar    1  UNL1       -0.0024
     33 C         141.5125  138.3766  165.2035 C.ar    1  UNL1       -0.0026
     34 C         141.4947  137.4771  164.0033 C.ar    1  UNL1       -0.0003
     35 C         140.2151  137.2514  163.2541 C.ar    1  UNL1       -0.0000
     36 C         138.9531  137.9251  163.7050 C.ar    1  UNL1       -0.0003
     37 C         138.9708  138.8247  164.9053 C.ar    1  UNL1       -0.0026
@<TRIPOS>BOND
     1    16    17    1
     2    17    18   ar
     3    18    19   ar
     4    19    20   ar
     5    20    21   ar
     6    21    22    1
     7    21    23   ar
     8    23     7    1
     9     7     8    2
    10     7     9   am
    11     9    10    1
    12    10    11    1
    13    11    12    1
    14    12    13    1
    15    12     1    1
    16     1     2    1
    17     2     3    1
    18     3     4    1
    19     4    24    1
    20    24    31    1
    21    31    32    1
    22    32    33   ar
    23    33    34   ar
    24    34    35   ar
    25    35    36   ar
    26    36    37   ar
    27    24    25    1
    28    25    26   ar
    29    26    27   ar
    30    27    28   ar
    31    28    29   ar
    32    29    30   ar
    33     4     5    1
    34     5     6    1
    35    12    14    1
    36    14    15    1
    37    23    17   ar
    38    15     9    1
    39     6     1    1
    40    37    32   ar
    41    30    25   ar
@<TRIPOS>MOLECULE
*****
 37 41 0 0 0
SMALL
GASTEIGER

@<TRIPOS>ATOM
      1 N         140.5203  138.6490  160.1883 N.3     1  UNL1       -0.2750
      2 C         141.9760  138.2969  160.1048 C.3     1  UNL1        0.0737
      3 C         142.5679  137.8588  158.7980 C.3     1  UNL1        0.0371
      4 C         141.7041  137.7728  157.5747 C.3     1  UNL1        0.0759
      5 C         140.2484  138.1250  157.6582 C.3     1  UNL1        0.0371
      6 C         139.6565  138.5631  158.9650 C.3     1  UNL1        0.0737
      7 C         140.5834  142.1571  164.7195 C.2     1  UNL1        0.2484
      8 O         139.6698  142.2028  165.9082 O.2     1  UNL1       -0.2699
      9 N         140.3651  141.1338  163.6447 N.am    1  UNL1       -0.2760
     10 C         141.2787  141.0881  162.4559 C.3     1  UNL1        0.0950
     11 C         141.0604  140.0647  161.3811 C.3     1  UNL1        0.0362
     12 C         139.9284  139.0871  161.4951 C.3     1  UNL1        0.0487
     13 C         139.0020  137.9574  161.1553 C.3     1  UNL1        0.0161
     14 C         139.0148  139.1329  162.6839 C.3     1  UNL1        0.0362
     15 C         139.2331  140.1562  163.7587 C.3     1  UNL1        0.0950
     16 C         140.1333  144.8300  163.4338 C.3     1  UNL1        0.0312
     17 C         141.4903  144.4711  163.9626 C.ar    1  UNL1       -0.0178
     18 C         142.6223  145.4486  163.8486 C.ar    1  UNL1       -0.0041
     19 C         143.9794  145.0897  164.3774 C.ar    1  UNL1       -0.0006
     20 C         144.2044  143.7533  165.0202 C.ar    1  UNL1       -0.0041
     21 C         143.0724  142.7758  165.1342 C.ar    1  UNL1       -0.0178
     22 C         143.2975  141.4393  165.7771 C.3     1  UNL1        0.0312
     23 C         141.7154  143.1347  164.6054 C.ar    1  UNL1        0.0457
     24 N         142.2959  137.3348  156.2679 N.pl3   1  UNL1       -0.3051
     25 C         142.4352  135.8734  155.9599 C.ar    1  UNL1        0.0480
     26 C         143.6904  135.1438  156.3369 C.ar    1  UNL1        0.0145
     27 C         143.8297  133.6824  156.0289 C.ar    1  UNL1        0.0013
     28 C         142.7138  132.9506  155.3440 C.ar    1  UNL1        0.0001
     29 C         141.4585  133.6802  154.9670 C.ar    1  UNL1        0.0013
     30 C         141.3193  135.1416  155.2750 C.ar    1  UNL1        0.0145
     31 C         142.7485  138.3583  155.2689 C.3     1  UNL1        0.1177
     32 C         143.2138  139.7061  155.7345 C.ar    1  UNL1       -0.0024
     33 C         142.2444  140.8481  155.8136 C.ar    1  UNL1       -0.0026
     34 C         142.7097  142.1959  156.2792 C.ar    1  UNL1       -0.0003
     35 C         144.1443  142.4018  156.6658 C.ar    1  UNL1       -0.0000
     36 C         145.1137  141.2599  156.5867 C.ar    1  UNL1       -0.0003
     37 C         144.6484  139.9120  156.1211 C.ar    1  UNL1       -0.0026
@<TRIPOS>BOND
     1    16    17    1
     2    17    18   ar
     3    18    19   ar
     4    19    20   ar
     5    20    21   ar
     6    21    22    1
     7    21    23   ar
     8    23     7    1
     9     7     8    2
    10     7     9   am
    11     9    10    1
    12    10    11    1
    13    11    12    1
    14    12    13    1
    15    12     1    1
    16     1     2    1
    17     2     3    1
    18     3     4    1
    19     4    24    1
    20    24    31    1
    21    31    32    1
    22    32    33   ar
    23    33    34   ar
    24    34    35   ar
    25    35    36   ar
    26    36    37   ar
    27    24    25    1
    28    25    26   ar
    29    26    27   ar
    30    27    28   ar
    31    28    29   ar
    32    29    30   ar
    33     4     5    1
    34     5     6    1
    35    12    14    1
    36    14    15    1
    37    23    17   ar
    38    15     9    1
    39     6     1    1
    40    37    32   ar
    41    30    25   ar
