@<TRIPOS>MOLECULE
*****
 37 41 0 0 0
SMALL
GASTEIGER

@<TRIPOS>ATOM
      1 N         140.0404  143.3347  153.4764 N.pl3   1  UNL1       -0.3380
      2 C         138.6093  142.9129  153.6313 C.2     1  UNL1        0.1482
      3 N         138.1854  142.1262  154.8360 N.2     1  UNL1       -0.2491
      4 C         136.7543  141.7045  154.9910 C.3     1  UNL1        0.1277
      5 C         136.0470  140.9281  156.0621 C.3     1  UNL1        0.1202
      6 N         134.6026  140.8133  155.6742 N.pl3   1  UNL1       -0.2758
      7 C         134.4172  141.5187  154.3634 C.3     1  UNL1        0.0968
      8 C         135.7470  142.0695  153.9412 C.3     1  UNL1        0.0573
      9 C         136.1709  142.8562  152.7365 C.3     1  UNL1        0.0688
     10 S         137.6020  143.2779  152.5816 S.3     1  UNL1       -0.0807
     11 H         140.7015  143.0951  154.1654 H       1  UNL1        0.1442
     12 H         140.3186  143.8510  152.6857 H       1  UNL1        0.1442
     13 C         137.6442  141.2685  156.1172 C.ar    1  UNL1        0.0282
     14 C         137.7577  142.1114  157.3528 C.ar    1  UNL1        0.0145
     15 C         138.6475  141.6754  158.4789 C.ar    1  UNL1        0.0505
     16 C         139.4238  140.3966  158.3694 C.ar    1  UNL1        0.0170
     17 C         139.3103  139.5537  157.1338 C.ar    1  UNL1        0.0306
     18 C         138.4204  139.9897  156.0076 C.ar    1  UNL1        0.1380
     19 F         138.3069  139.1468  154.7720 F       1  UNL1       -0.2044
     20 N         138.7610  142.5182  159.7144 N.am    1  UNL1       -0.2791
     21 C         138.1112  142.0704  160.9901 C.2     1  UNL1        0.2672
     22 O         137.3479  140.7799  161.0301 O.2     1  UNL1       -0.2682
     23 H         139.2620  143.3652  159.6882 H       1  UNL1        0.1552
     24 C         138.2248  142.9133  162.2258 C.ar    1  UNL1        0.1349
     25 C         137.6064  142.4477  163.5106 C.ar    1  UNL1        0.0261
     26 C         137.7200  143.2905  164.7463 C.ar    1  UNL1        0.0329
     27 C         138.4519  144.5988  164.6970 C.ar    1  UNL1        0.1592
     28 F         138.5654  145.4416  165.9327 F       1  UNL1       -0.2025
     29 C         139.0703  145.0644  163.4122 C.ar    1  UNL1        0.1285
     30 N         138.9567  144.2216  162.1765 N.ar    1  UNL1       -0.2369
     31 C         133.5316  140.1156  156.4592 C.ar    1  UNL1        0.2204
     32 N         133.9002  139.0485  157.4468 N.ar    1  UNL1       -0.2097
     33 C         132.8292  138.3509  158.2317 C.ar    1  UNL1        0.1330
     34 C         131.3896  138.7203  158.0291 C.ar    1  UNL1        0.1784
     35 F         130.3186  138.0226  158.8141 F       1  UNL1       -0.2009
     36 C         131.0210  139.7873  157.0415 C.ar    1  UNL1        0.1330
     37 N         132.0920  140.4850  156.2565 N.ar    1  UNL1       -0.2097
@<TRIPOS>BOND
     1     1     2    1
     2     2     3    2
     3     3     4    1
     4     4    13    1
     5    13    14   ar
     6    14    15   ar
     7    15    20    1
     8    20    21   am
     9    21    22    2
    10    21    24    1
    11    24    25   ar
    12    25    26   ar
    13    26    27   ar
    14    27    28    1
    15    27    29   ar
    16    29    30   ar
    17    15    16   ar
    18    16    17   ar
    19    17    18   ar
    20    18    19    1
    21     4     5    1
    22     5     6    1
    23     6    31    1
    24    31    32   ar
    25    32    33   ar
    26    33    34   ar
    27    34    35    1
    28    34    36   ar
    29    36    37   ar
    30     6     7    1
    31     8     7    1
    32     8     9    1
    33     9    10    1
    34    10     2    1
    35     8     4    1
    36    18    13   ar
    37    37    31   ar
    38    30    24   ar
    39     1    11    1
    40     1    12    1
    41    20    23    1
@<TRIPOS>MOLECULE
*****
 37 41 0 0 0
SMALL
GASTEIGER

@<TRIPOS>ATOM
      1 N         141.7711  145.5202  159.7100 N.pl3   1  UNL1       -0.3380
      2 C         141.1579  145.1406  161.0252 C.2     1  UNL1        0.1482
      3 N         141.7902  144.0722  161.8670 N.2     1  UNL1       -0.2491
      4 C         141.1770  143.6927  163.1823 C.3     1  UNL1        0.1277
      5 C         141.5724  142.6847  164.2205 C.3     1  UNL1        0.1202
      6 N         140.5712  142.7506  165.3355 N.pl3   1  UNL1       -0.2758
      7 C         139.5571  143.7993  164.9864 C.3     1  UNL1        0.0968
      8 C         139.9314  144.3815  163.6557 C.3     1  UNL1        0.0573
      9 C         139.2991  145.4499  162.8139 C.3     1  UNL1        0.0688
     10 S         139.9124  145.8294  161.4986 S.3     1  UNL1       -0.0807
     11 H         142.5886  145.0681  159.3992 H       1  UNL1        0.1442
     12 H         141.3561  146.2214  159.1574 H       1  UNL1        0.1442
     13 C         142.4169  142.9202  162.8417 C.ar    1  UNL1        0.0282
     14 C         142.3545  141.8053  161.8402 C.ar    1  UNL1        0.0145
     15 C         143.5944  141.0328  161.4996 C.ar    1  UNL1        0.0505
     16 C         144.8967  141.3753  162.1605 C.ar    1  UNL1        0.0170
     17 C         144.9590  142.4902  163.1621 C.ar    1  UNL1        0.0306
     18 C         143.7191  143.2627  163.5027 C.ar    1  UNL1        0.1380
     19 F         143.7815  144.3777  164.5042 F       1  UNL1       -0.2044
     20 N         143.5321  139.9179  160.4981 N.am    1  UNL1       -0.2791
     21 C         143.4210  140.2293  159.0350 C.2     1  UNL1        0.2672
     22 O         143.3722  141.6556  158.5734 O.2     1  UNL1       -0.2682
     23 H         143.5641  138.9818  160.8011 H       1  UNL1        0.1552
     24 C         143.3587  139.1143  158.0335 C.ar    1  UNL1        0.1349
     25 C         142.7172  137.8096  158.4027 C.ar    1  UNL1        0.0261
     26 C         142.6548  136.6946  157.4012 C.ar    1  UNL1        0.0329
     27 C         143.2340  136.8843  156.0306 C.ar    1  UNL1        0.1592
     28 F         143.1717  135.7693  155.0292 F       1  UNL1       -0.2025
     29 C         143.8755  138.1890  155.6615 C.ar    1  UNL1        0.1285
     30 N         143.9378  139.3040  156.6629 N.ar    1  UNL1       -0.2369
     31 C         140.5822  141.9146  166.5809 C.ar    1  UNL1        0.2204
     32 N         141.5604  142.2155  167.6775 N.ar    1  UNL1       -0.2097
     33 C         141.5714  141.3795  168.9229 C.ar    1  UNL1        0.1330
     34 C         140.6041  140.2427  169.0717 C.ar    1  UNL1        0.1784
     35 F         140.6151  139.4067  170.3171 F       1  UNL1       -0.2009
     36 C         139.6259  139.9419  167.9751 C.ar    1  UNL1        0.1330
     37 N         139.6150  140.7778  166.7297 N.ar    1  UNL1       -0.2097
@<TRIPOS>BOND
     1     1     2    1
     2     2     3    2
     3     3     4    1
     4     4    13    1
     5    13    14   ar
     6    14    15   ar
     7    15    20    1
     8    20    21   am
     9    21    22    2
    10    21    24    1
    11    24    25   ar
    12    25    26   ar
    13    26    27   ar
    14    27    28    1
    15    27    29   ar
    16    29    30   ar
    17    15    16   ar
    18    16    17   ar
    19    17    18   ar
    20    18    19    1
    21     4     5    1
    22     5     6    1
    23     6    31    1
    24    31    32   ar
    25    32    33   ar
    26    33    34   ar
    27    34    35    1
    28    34    36   ar
    29    36    37   ar
    30     6     7    1
    31     8     7    1
    32     8     9    1
    33     9    10    1
    34    10     2    1
    35     8     4    1
    36    18    13   ar
    37    37    31   ar
    38    30    24   ar
    39     1    11    1
    40     1    12    1
    41    20    23    1
@<TRIPOS>MOLECULE
*****
 37 41 0 0 0
SMALL
GASTEIGER

@<TRIPOS>ATOM
      1 N         137.3791  144.0418  153.0726 N.pl3   1  UNL1       -0.3380
      2 C         137.8525  143.7241  154.4601 C.2     1  UNL1        0.1482
      3 N         137.4675  142.4258  155.1050 N.2     1  UNL1       -0.2491
      4 C         137.9409  142.1081  156.4925 C.3     1  UNL1        0.1277
      5 C         137.7241  140.9177  157.3790 C.3     1  UNL1        0.1202
      6 N         138.4485  141.1627  158.6694 N.pl3   1  UNL1       -0.2758
      7 C         139.1130  142.5046  158.5804 C.3     1  UNL1        0.0968
      8 C         138.7993  143.0889  157.2350 C.3     1  UNL1        0.0573
      9 C         139.1843  144.3872  156.5900 C.3     1  UNL1        0.0688
     10 S         138.7109  144.7048  155.2025 S.3     1  UNL1       -0.0807
     11 H         136.8157  143.3981  152.5853 H       1  UNL1        0.1442
     12 H         137.6318  144.8939  152.6493 H       1  UNL1        0.1442
     13 C         137.0925  141.0352  155.8767 C.ar    1  UNL1        0.0282
     14 C         135.6095  141.0300  156.1018 C.ar    1  UNL1        0.0145
     15 C         134.7612  139.9571  155.4861 C.ar    1  UNL1        0.0505
     16 C         135.3959  138.8893  154.6452 C.ar    1  UNL1        0.0170
     17 C         136.8789  138.8945  154.4201 C.ar    1  UNL1        0.0306
     18 C         137.7273  139.9674  155.0358 C.ar    1  UNL1        0.1380
     19 F         139.2103  139.9726  154.8107 F       1  UNL1       -0.2044
     20 N         133.2783  139.9519  155.7111 N.am    1  UNL1       -0.2791
     21 C         132.7147  139.3917  156.9833 C.2     1  UNL1        0.2672
     22 O         133.6341  138.8367  158.0305 O.2     1  UNL1       -0.2682
     23 H         132.6748  140.3162  155.0239 H       1  UNL1        0.1552
     24 C         131.2316  139.3865  157.2084 C.ar    1  UNL1        0.1349
     25 C         130.6312  138.4661  158.2295 C.ar    1  UNL1        0.0261
     26 C         129.1482  138.4609  158.4546 C.ar    1  UNL1        0.0329
     27 C         128.2656  139.3760  157.6586 C.ar    1  UNL1        0.1592
     28 F         126.7826  139.3707  157.8837 F       1  UNL1       -0.2025
     29 C         128.8660  140.2964  156.6376 C.ar    1  UNL1        0.1285
     30 N         130.3490  140.3016  156.4125 N.ar    1  UNL1       -0.2369
     31 C         138.4996  140.2297  159.8429 C.ar    1  UNL1        0.2204
     32 N         139.2684  138.9453  159.7470 N.ar    1  UNL1       -0.2097
     33 C         139.3194  138.0124  160.9204 C.ar    1  UNL1        0.1330
     34 C         138.6016  138.3638  162.1897 C.ar    1  UNL1        0.1784
     35 F         138.6526  137.4308  163.3632 F       1  UNL1       -0.2009
     36 C         137.8327  139.6482  162.2856 C.ar    1  UNL1        0.1330
     37 N         137.7817  140.5811  161.1122 N.ar    1  UNL1       -0.2097
@<TRIPOS>BOND
     1     1     2    1
     2     2     3    2
     3     3     4    1
     4     4    13    1
     5    13    14   ar
     6    14    15   ar
     7    15    20    1
     8    20    21   am
     9    21    22    2
    10    21    24    1
    11    24    25   ar
    12    25    26   ar
    13    26    27   ar
    14    27    28    1
    15    27    29   ar
    16    29    30   ar
    17    15    16   ar
    18    16    17   ar
    19    17    18   ar
    20    18    19    1
    21     4     5    1
    22     5     6    1
    23     6    31    1
    24    31    32   ar
    25    32    33   ar
    26    33    34   ar
    27    34    35    1
    28    34    36   ar
    29    36    37   ar
    30     6     7    1
    31     8     7    1
    32     8     9    1
    33     9    10    1
    34    10     2    1
    35     8     4    1
    36    18    13   ar
    37    37    31   ar
    38    30    24   ar
    39     1    11    1
    40     1    12    1
    41    20    23    1
@<TRIPOS>MOLECULE
*****
 37 41 0 0 0
SMALL
GASTEIGER

@<TRIPOS>ATOM
      1 N         139.0602  140.4387  154.2107 N.pl3   1  UNL1       -0.3380
      2 C         139.5205  139.0114  154.2388 C.2     1  UNL1        0.1482
      3 N         140.4345  138.5395  155.3306 N.2     1  UNL1       -0.2491
      4 C         140.8948  137.1122  155.3588 C.3     1  UNL1        0.1277
      5 C         141.7897  136.3646  156.3025 C.3     1  UNL1        0.1202
      6 N         141.8891  134.9471  155.8220 N.pl3   1  UNL1       -0.2758
      7 C         141.0557  134.8186  154.5814 C.3     1  UNL1        0.0968
      8 C         140.4412  136.1567  154.2952 C.3     1  UNL1        0.0573
      9 C         139.5273  136.6286  153.2034 C.3     1  UNL1        0.0688
     10 S         139.0669  138.0559  153.1752 S.3     1  UNL1       -0.0807
     11 H         139.3579  141.0658  154.9088 H       1  UNL1        0.1442
     12 H         138.4603  140.7484  153.4941 H       1  UNL1        0.1442
     13 C         141.4289  137.9478  156.4842 C.ar    1  UNL1        0.0282
     14 C         140.6282  138.1121  157.7419 C.ar    1  UNL1        0.0145
     15 C         141.1623  138.9477  158.8672 C.ar    1  UNL1        0.0505
     16 C         142.4972  139.6189  158.7350 C.ar    1  UNL1        0.0170
     17 C         143.2980  139.4546  157.4773 C.ar    1  UNL1        0.0306
     18 C         142.7639  138.6190  156.3518 C.ar    1  UNL1        0.1380
     19 F         143.5647  138.4546  155.0942 F       1  UNL1       -0.2044
     20 N         140.3616  139.1121  160.1249 N.am    1  UNL1       -0.2791
     21 C         140.7964  138.4261  161.3859 C.2     1  UNL1        0.2672
     22 O         142.0320  137.5757  161.3894 O.2     1  UNL1       -0.2682
     23 H         139.5506  139.6703  160.1227 H       1  UNL1        0.1552
     24 C         139.9956  138.5906  162.6437 C.ar    1  UNL1        0.1349
     25 C         140.0060  137.5117  163.6858 C.ar    1  UNL1        0.0261
     26 C         139.2053  137.6761  164.9435 C.ar    1  UNL1        0.0329
     27 C         138.3942  138.9193  165.1591 C.ar    1  UNL1        0.1592
     28 F         137.5934  139.0837  166.4167 F       1  UNL1       -0.2025
     29 C         138.3838  139.9981  164.1169 C.ar    1  UNL1        0.1285
     30 N         139.1845  139.8338  162.8592 N.ar    1  UNL1       -0.2369
     31 C         142.6825  133.8505  156.4686 C.ar    1  UNL1        0.2204
     32 N         143.9076  134.1824  157.2680 N.ar    1  UNL1       -0.2097
     33 C         144.7010  133.0858  157.9145 C.ar    1  UNL1        0.1330
     34 C         144.2693  131.6574  157.7617 C.ar    1  UNL1        0.1784
     35 F         145.0628  130.5609  158.4083 F       1  UNL1       -0.2009
     36 C         143.0443  131.3256  156.9623 C.ar    1  UNL1        0.1330
     37 N         142.2509  132.4221  156.3158 N.ar    1  UNL1       -0.2097
@<TRIPOS>BOND
     1     1     2    1
     2     2     3    2
     3     3     4    1
     4     4    13    1
     5    13    14   ar
     6    14    15   ar
     7    15    20    1
     8    20    21   am
     9    21    22    2
    10    21    24    1
    11    24    25   ar
    12    25    26   ar
    13    26    27   ar
    14    27    28    1
    15    27    29   ar
    16    29    30   ar
    17    15    16   ar
    18    16    17   ar
    19    17    18   ar
    20    18    19    1
    21     4     5    1
    22     5     6    1
    23     6    31    1
    24    31    32   ar
    25    32    33   ar
    26    33    34   ar
    27    34    35    1
    28    34    36   ar
    29    36    37   ar
    30     6     7    1
    31     8     7    1
    32     8     9    1
    33     9    10    1
    34    10     2    1
    35     8     4    1
    36    18    13   ar
    37    37    31   ar
    38    30    24   ar
    39     1    11    1
    40     1    12    1
    41    20    23    1
@<TRIPOS>MOLECULE
*****
 37 41 0 0 0
SMALL
GASTEIGER

@<TRIPOS>ATOM
      1 N         142.5981  144.4368  159.1162 N.pl3   1  UNL1       -0.3380
      2 C         141.6365  143.9502  160.1596 C.2     1  UNL1        0.1482
      3 N         141.7762  142.5664  160.7213 N.2     1  UNL1       -0.2491
      4 C         140.8146  142.0799  161.7646 C.3     1  UNL1        0.1277
      5 C         140.7037  140.7755  162.4971 C.3     1  UNL1        0.1202
      6 N         139.5338  140.8667  163.4315 N.pl3   1  UNL1       -0.2758
      7 C         138.9217  142.2273  163.2764 C.3     1  UNL1        0.0968
      8 C         139.7133  142.9771  162.2463 C.3     1  UNL1        0.0573
      9 C         139.5736  144.3609  161.6846 C.3     1  UNL1        0.0688
     10 S         140.5352  144.8474  160.6412 S.3     1  UNL1       -0.0807
     11 H         143.3209  143.8479  158.8001 H       1  UNL1        0.1442
     12 H         142.5064  145.3450  158.7476 H       1  UNL1        0.1442
     13 C         141.8604  141.0746  161.3825 C.ar    1  UNL1        0.0282
     14 C         141.5503  140.0213  160.3605 C.ar    1  UNL1        0.0145
     15 C         142.5960  139.0161  159.9785 C.ar    1  UNL1        0.0505
     16 C         143.9518  139.0642  160.6183 C.ar    1  UNL1        0.0170
     17 C         144.2619  140.1174  161.6403 C.ar    1  UNL1        0.0306
     18 C         143.2162  141.1227  162.0225 C.ar    1  UNL1        0.1380
     19 F         143.5263  142.1760  163.0444 F       1  UNL1       -0.2044
     20 N         142.2859  137.9629  158.9565 N.am    1  UNL1       -0.2791
     21 C         142.8869  138.0487  157.5849 C.2     1  UNL1        0.2672
     22 O         143.7979  139.1878  157.2352 O.2     1  UNL1       -0.2682
     23 H         141.6880  137.2152  159.1861 H       1  UNL1        0.1552
     24 C         142.5768  136.9953  156.5629 C.ar    1  UNL1        0.1349
     25 C         143.6881  136.1988  155.9459 C.ar    1  UNL1        0.0261
     26 C         143.3781  135.1455  154.9239 C.ar    1  UNL1        0.0329
     27 C         141.9568  134.8887  154.5190 C.ar    1  UNL1        0.1592
     28 F         141.6468  133.8354  153.4970 F       1  UNL1       -0.2025
     29 C         140.8456  135.6852  155.1359 C.ar    1  UNL1        0.1285
     30 N         141.1556  136.7385  156.1579 N.ar    1  UNL1       -0.2369
     31 C         139.0593  139.7868  164.3582 C.ar    1  UNL1        0.2204
     32 N         139.3267  138.3474  164.0318 N.ar    1  UNL1       -0.2097
     33 C         138.8522  137.2676  164.9585 C.ar    1  UNL1        0.1330
     34 C         138.1102  137.6272  166.2116 C.ar    1  UNL1        0.1784
     35 F         137.6357  136.5473  167.1383 F       1  UNL1       -0.2009
     36 C         137.8428  139.0666  166.5380 C.ar    1  UNL1        0.1330
     37 N         138.3173  140.1464  165.6113 N.ar    1  UNL1       -0.2097
@<TRIPOS>BOND
     1     1     2    1
     2     2     3    2
     3     3     4    1
     4     4    13    1
     5    13    14   ar
     6    14    15   ar
     7    15    20    1
     8    20    21   am
     9    21    22    2
    10    21    24    1
    11    24    25   ar
    12    25    26   ar
    13    26    27   ar
    14    27    28    1
    15    27    29   ar
    16    29    30   ar
    17    15    16   ar
    18    16    17   ar
    19    17    18   ar
    20    18    19    1
    21     4     5    1
    22     5     6    1
    23     6    31    1
    24    31    32   ar
    25    32    33   ar
    26    33    34   ar
    27    34    35    1
    28    34    36   ar
    29    36    37   ar
    30     6     7    1
    31     8     7    1
    32     8     9    1
    33     9    10    1
    34    10     2    1
    35     8     4    1
    36    18    13   ar
    37    37    31   ar
    38    30    24   ar
    39     1    11    1
    40     1    12    1
    41    20    23    1
@<TRIPOS>MOLECULE
*****
 37 41 0 0 0
SMALL
GASTEIGER

@<TRIPOS>ATOM
      1 N         145.3140  142.8500  160.6813 N.pl3   1  UNL1       -0.3380
      2 C         144.7002  142.2309  161.9019 C.2     1  UNL1        0.1482
      3 N         143.3050  141.6832  161.8442 N.2     1  UNL1       -0.2491
      4 C         142.6912  141.0642  163.0649 C.3     1  UNL1        0.1277
      5 C         141.3465  140.4456  163.3084 C.3     1  UNL1        0.1202
      6 N         141.2969  139.9919  164.7373 N.pl3   1  UNL1       -0.2758
      7 C         142.6109  140.3302  165.3769 C.3     1  UNL1        0.0968
      8 C         143.4726  140.9928  164.3433 C.3     1  UNL1        0.0573
      9 C         144.8678  141.5405  164.4010 C.3     1  UNL1        0.0688
     10 S         145.4816  142.1596  163.1803 S.3     1  UNL1       -0.0807
     11 H         144.8012  142.8968  159.8422 H       1  UNL1        0.1442
     12 H         146.2298  143.2095  160.7192 H       1  UNL1        0.1442
     13 C         141.7928  141.0647  161.8637 C.ar    1  UNL1        0.0282
     14 C         141.8935  139.9626  160.8512 C.ar    1  UNL1        0.0145
     15 C         140.9951  139.9631  159.6501 C.ar    1  UNL1        0.0505
     16 C         139.9959  141.0658  159.4614 C.ar    1  UNL1        0.0170
     17 C         139.8951  142.1680  160.4738 C.ar    1  UNL1        0.0306
     18 C         140.7936  142.1675  161.6751 C.ar    1  UNL1        0.1380
     19 F         140.6928  143.2696  162.6875 F       1  UNL1       -0.2044
     20 N         141.0958  138.8610  158.6376 N.am    1  UNL1       -0.2791
     21 C         142.4138  138.5560  157.9896 C.2     1  UNL1        0.2672
     22 O         143.6310  139.3531  158.3540 O.2     1  UNL1       -0.2682
     23 H         140.2969  138.3378  158.3984 H       1  UNL1        0.1552
     24 C         142.5145  137.4538  156.9770 C.ar    1  UNL1        0.1349
     25 C         141.2707  136.7896  156.4653 C.ar    1  UNL1        0.0261
     26 C         141.3714  135.6874  155.4528 C.ar    1  UNL1        0.0329
     27 C         142.7158  135.2496  154.9520 C.ar    1  UNL1        0.1592
     28 F         142.8165  134.1474  153.9396 F       1  UNL1       -0.2025
     29 C         143.9596  135.9139  155.4638 C.ar    1  UNL1        0.1285
     30 N         143.8589  137.0160  156.4762 N.ar    1  UNL1       -0.2369
     31 C         140.1370  139.3183  165.4088 C.ar    1  UNL1        0.2204
     32 N         139.6404  137.9971  164.9010 N.ar    1  UNL1       -0.2097
     33 C         138.4805  137.3235  165.5725 C.ar    1  UNL1        0.1330
     34 C         137.8172  137.9711  166.7517 C.ar    1  UNL1        0.1784
     35 F         136.6573  137.2975  167.4232 F       1  UNL1       -0.2009
     36 C         138.3138  139.2923  167.2595 C.ar    1  UNL1        0.1330
     37 N         139.4737  139.9659  166.5880 N.ar    1  UNL1       -0.2097
@<TRIPOS>BOND
     1     1     2    1
     2     2     3    2
     3     3     4    1
     4     4    13    1
     5    13    14   ar
     6    14    15   ar
     7    15    20    1
     8    20    21   am
     9    21    22    2
    10    21    24    1
    11    24    25   ar
    12    25    26   ar
    13    26    27   ar
    14    27    28    1
    15    27    29   ar
    16    29    30   ar
    17    15    16   ar
    18    16    17   ar
    19    17    18   ar
    20    18    19    1
    21     4     5    1
    22     5     6    1
    23     6    31    1
    24    31    32   ar
    25    32    33   ar
    26    33    34   ar
    27    34    35    1
    28    34    36   ar
    29    36    37   ar
    30     6     7    1
    31     8     7    1
    32     8     9    1
    33     9    10    1
    34    10     2    1
    35     8     4    1
    36    18    13   ar
    37    37    31   ar
    38    30    24   ar
    39     1    11    1
    40     1    12    1
    41    20    23    1
@<TRIPOS>MOLECULE
*****
 37 41 0 0 0
SMALL
GASTEIGER

@<TRIPOS>ATOM
      1 N         144.8641  143.6398  161.4239 N.pl3   1  UNL1       -0.3380
      2 C         144.3250  142.5604  162.3150 C.2     1  UNL1        0.1482
      3 N         142.8669  142.5363  162.6661 N.2     1  UNL1       -0.2491
      4 C         142.3278  141.4569  163.5573 C.3     1  UNL1        0.1277
      5 C         140.9470  141.1771  164.0725 C.3     1  UNL1        0.1202
      6 N         141.0127  139.9488  164.9309 N.pl3   1  UNL1       -0.2758
      7 C         142.4340  139.4694  164.9462 C.3     1  UNL1        0.0968
      8 C         143.2467  140.4015  164.0973 C.3     1  UNL1        0.0573
      9 C         144.7048  140.4255  163.7461 C.3     1  UNL1        0.0688
     10 S         145.2439  141.5050  162.8550 S.3     1  UNL1       -0.0807
     11 H         144.2610  144.3325  161.0695 H       1  UNL1        0.1442
     12 H         145.8211  143.6556  161.1934 H       1  UNL1        0.1442
     13 C         141.2932  142.4399  163.0952 C.ar    1  UNL1        0.0282
     14 C         140.4310  142.1200  161.9102 C.ar    1  UNL1        0.0145
     15 C         139.3965  143.1030  161.4482 C.ar    1  UNL1        0.0505
     16 C         139.2242  144.4060  162.1712 C.ar    1  UNL1        0.0170
     17 C         140.0864  144.7259  163.3562 C.ar    1  UNL1        0.0306
     18 C         141.1210  143.7428  163.8183 C.ar    1  UNL1        0.1380
     19 F         141.9832  144.0627  165.0033 F       1  UNL1       -0.2044
     20 N         138.5343  142.7832  160.2632 N.am    1  UNL1       -0.2791
     21 C         139.0744  142.9549  158.8745 C.2     1  UNL1        0.2672
     22 O         140.4768  143.4465  158.6706 O.2     1  UNL1       -0.2682
     23 H         137.6138  142.4605  160.3970 H       1  UNL1        0.1552
     24 C         138.2121  142.6350  157.6894 C.ar    1  UNL1        0.1349
     25 C         137.4582  141.3393  157.6384 C.ar    1  UNL1        0.0261
     26 C         136.5959  141.0194  156.4535 C.ar    1  UNL1        0.0329
     27 C         136.4876  141.9952  155.3195 C.ar    1  UNL1        0.1592
     28 F         135.6253  141.6753  154.1345 F       1  UNL1       -0.2025
     29 C         137.2416  143.2910  155.3705 C.ar    1  UNL1        0.1285
     30 N         138.1038  143.6109  156.5554 N.ar    1  UNL1       -0.2369
     31 C         139.8596  139.3116  165.6482 C.ar    1  UNL1        0.2204
     32 N         139.2581  139.9837  166.8468 N.ar    1  UNL1       -0.2097
     33 C         138.1051  139.3465  167.5639 C.ar    1  UNL1        0.1330
     34 C         137.5534  138.0373  167.0826 C.ar    1  UNL1        0.1784
     35 F         136.4003  137.4002  167.7998 F       1  UNL1       -0.2009
     36 C         138.1548  137.3653  165.8840 C.ar    1  UNL1        0.1330
     37 N         139.3079  138.0025  165.1668 N.ar    1  UNL1       -0.2097
@<TRIPOS>BOND
     1     1     2    1
     2     2     3    2
     3     3     4    1
     4     4    13    1
     5    13    14   ar
     6    14    15   ar
     7    15    20    1
     8    20    21   am
     9    21    22    2
    10    21    24    1
    11    24    25   ar
    12    25    26   ar
    13    26    27   ar
    14    27    28    1
    15    27    29   ar
    16    29    30   ar
    17    15    16   ar
    18    16    17   ar
    19    17    18   ar
    20    18    19    1
    21     4     5    1
    22     5     6    1
    23     6    31    1
    24    31    32   ar
    25    32    33   ar
    26    33    34   ar
    27    34    35    1
    28    34    36   ar
    29    36    37   ar
    30     6     7    1
    31     8     7    1
    32     8     9    1
    33     9    10    1
    34    10     2    1
    35     8     4    1
    36    18    13   ar
    37    37    31   ar
    38    30    24   ar
    39     1    11    1
    40     1    12    1
    41    20    23    1
@<TRIPOS>MOLECULE
*****
 37 41 0 0 0
SMALL
GASTEIGER

@<TRIPOS>ATOM
      1 N         144.8500  144.2795  162.1566 N.pl3   1  UNL1       -0.3380
      2 C         144.3225  143.1177  162.9452 C.2     1  UNL1        0.1482
      3 N         142.8536  143.0089  163.2289 N.2     1  UNL1       -0.2491
      4 C         142.3261  141.8471  164.0176 C.3     1  UNL1        0.1277
      5 C         140.9389  141.4749  164.4504 C.3     1  UNL1        0.1202
      6 N         141.0230  140.1918  165.2227 N.pl3   1  UNL1       -0.2758
      7 C         142.4621  139.7710  165.2672 C.3     1  UNL1        0.0968
      8 C         143.2674  140.7941  164.5224 C.3     1  UNL1        0.0573
      9 C         144.7363  140.9029  164.2387 C.3     1  UNL1        0.0688
     10 S         145.2638  142.0647  163.4501 S.3     1  UNL1       -0.0807
     11 H         144.2321  144.9707  161.8252 H       1  UNL1        0.1442
     12 H         145.8141  144.3509  161.9704 H       1  UNL1        0.1442
     13 C         141.2693  142.8177  163.5802 C.ar    1  UNL1        0.0282
     14 C         140.9058  142.9271  162.1290 C.ar    1  UNL1        0.0145
     15 C         139.8491  143.8977  161.6917 C.ar    1  UNL1        0.0505
     16 C         139.1559  144.7589  162.7055 C.ar    1  UNL1        0.0170
     17 C         139.5194  144.6495  164.1566 C.ar    1  UNL1        0.0306
     18 C         140.5762  143.6789  164.5940 C.ar    1  UNL1        0.1380
     19 F         140.9397  143.5695  166.0452 F       1  UNL1       -0.2044
     20 N         139.4855  144.0071  160.2406 N.am    1  UNL1       -0.2791
     21 C         140.3480  144.8065  159.3095 C.2     1  UNL1        0.2672
     22 O         141.5741  145.4966  159.8295 O.2     1  UNL1       -0.2682
     23 H         138.6808  143.5542  159.8992 H       1  UNL1        0.1552
     24 C         139.9844  144.9160  157.8583 C.ar    1  UNL1        0.1349
     25 C         140.2707  146.1822  157.1068 C.ar    1  UNL1        0.0261
     26 C         139.9071  146.2917  155.6556 C.ar    1  UNL1        0.0329
     27 C         139.2573  145.1349  154.9560 C.ar    1  UNL1        0.1592
     28 F         138.8937  145.2444  153.5048 F       1  UNL1       -0.2025
     29 C         138.9710  143.8687  155.7075 C.ar    1  UNL1        0.1285
     30 N         139.3346  143.7592  157.1586 N.ar    1  UNL1       -0.2369
     31 C         139.8703  139.4581  165.8419 C.ar    1  UNL1        0.2204
     32 N         139.3330  138.2187  165.1900 N.ar    1  UNL1       -0.2097
     33 C         138.1805  137.4851  165.8091 C.ar    1  UNL1        0.1330
     34 C         137.5652  137.9910  167.0802 C.ar    1  UNL1        0.1784
     35 F         136.4125  137.2574  167.6993 F       1  UNL1       -0.2009
     36 C         138.1025  139.2305  167.7320 C.ar    1  UNL1        0.1330
     37 N         139.2551  139.9641  167.1129 N.ar    1  UNL1       -0.2097
@<TRIPOS>BOND
     1     1     2    1
     2     2     3    2
     3     3     4    1
     4     4    13    1
     5    13    14   ar
     6    14    15   ar
     7    15    20    1
     8    20    21   am
     9    21    22    2
    10    21    24    1
    11    24    25   ar
    12    25    26   ar
    13    26    27   ar
    14    27    28    1
    15    27    29   ar
    16    29    30   ar
    17    15    16   ar
    18    16    17   ar
    19    17    18   ar
    20    18    19    1
    21     4     5    1
    22     5     6    1
    23     6    31    1
    24    31    32   ar
    25    32    33   ar
    26    33    34   ar
    27    34    35    1
    28    34    36   ar
    29    36    37   ar
    30     6     7    1
    31     8     7    1
    32     8     9    1
    33     9    10    1
    34    10     2    1
    35     8     4    1
    36    18    13   ar
    37    37    31   ar
    38    30    24   ar
    39     1    11    1
    40     1    12    1
    41    20    23    1
@<TRIPOS>MOLECULE
*****
 37 41 0 0 0
SMALL
GASTEIGER

@<TRIPOS>ATOM
      1 N         139.2487  144.0468  159.5693 N.pl3   1  UNL1       -0.3380
      2 C         139.8747  143.9245  160.9269 C.2     1  UNL1        0.1482
      3 N         139.8752  142.6029  161.6363 N.2     1  UNL1       -0.2491
      4 C         140.5012  142.4805  162.9939 C.3     1  UNL1        0.1277
      5 C         140.6519  141.3169  163.9285 C.3     1  UNL1        0.1202
      6 N         141.3706  141.7972  165.1544 N.pl3   1  UNL1       -0.2758
      7 C         141.6641  143.2575  164.9774 C.3     1  UNL1        0.0968
      8 C         141.1268  143.6798  163.6422 C.3     1  UNL1        0.0573
      9 C         141.1263  145.0015  162.9328 C.3     1  UNL1        0.0688
     10 S         140.5003  145.1238  161.5752 S.3     1  UNL1       -0.0807
     11 H         138.8381  143.2597  159.1438 H       1  UNL1        0.1442
     12 H         139.2484  144.9143  159.1037 H       1  UNL1        0.1442
     13 C         139.9169  141.2005  162.4739 C.ar    1  UNL1        0.0282
     14 C         140.6425  140.4188  161.4192 C.ar    1  UNL1        0.0145
     15 C         140.0581  139.1389  160.8993 C.ar    1  UNL1        0.0505
     16 C         138.7482  138.6407  161.4341 C.ar    1  UNL1        0.0170
     17 C         138.0226  139.4224  162.4888 C.ar    1  UNL1        0.0306
     18 C         138.6070  140.7024  163.0087 C.ar    1  UNL1        0.1380
     19 F         137.8814  141.4842  164.0634 F       1  UNL1       -0.2044
     20 N         140.7837  138.3571  159.8447 N.am    1  UNL1       -0.2791
     21 C         140.2761  138.3512  158.4332 C.2     1  UNL1        0.2672
     22 O         139.0430  139.1270  158.0763 O.2     1  UNL1       -0.2682
     23 H         141.5930  137.8478  160.0789 H       1  UNL1        0.1552
     24 C         141.0017  137.5693  157.3785 C.ar    1  UNL1        0.1349
     25 C         140.2796  137.1336  156.1380 C.ar    1  UNL1        0.0261
     26 C         141.0051  136.3518  155.0833 C.ar    1  UNL1        0.0329
     27 C         142.4527  136.0057  155.2691 C.ar    1  UNL1        0.1592
     28 F         143.1782  135.2239  154.2144 F       1  UNL1       -0.2025
     29 C         143.1748  136.4414  156.5095 C.ar    1  UNL1        0.1285
     30 N         142.4493  137.2232  157.5642 N.ar    1  UNL1       -0.2369
     31 C         141.7323  140.9635  166.3478 C.ar    1  UNL1        0.2204
     32 N         142.6270  139.7705  166.1859 N.ar    1  UNL1       -0.2097
     33 C         142.9887  138.9368  167.3793 C.ar    1  UNL1        0.1330
     34 C         142.4557  139.2962  168.7346 C.ar    1  UNL1        0.1784
     35 F         142.8174  138.4625  169.9280 F       1  UNL1       -0.2009
     36 C         141.5610  140.4892  168.8965 C.ar    1  UNL1        0.1330
     37 N         141.1993  141.3228  167.7031 N.ar    1  UNL1       -0.2097
@<TRIPOS>BOND
     1     1     2    1
     2     2     3    2
     3     3     4    1
     4     4    13    1
     5    13    14   ar
     6    14    15   ar
     7    15    20    1
     8    20    21   am
     9    21    22    2
    10    21    24    1
    11    24    25   ar
    12    25    26   ar
    13    26    27   ar
    14    27    28    1
    15    27    29   ar
    16    29    30   ar
    17    15    16   ar
    18    16    17   ar
    19    17    18   ar
    20    18    19    1
    21     4     5    1
    22     5     6    1
    23     6    31    1
    24    31    32   ar
    25    32    33   ar
    26    33    34   ar
    27    34    35    1
    28    34    36   ar
    29    36    37   ar
    30     6     7    1
    31     8     7    1
    32     8     9    1
    33     9    10    1
    34    10     2    1
    35     8     4    1
    36    18    13   ar
    37    37    31   ar
    38    30    24   ar
    39     1    11    1
    40     1    12    1
    41    20    23    1
