@<TRIPOS>MOLECULE
*****
 34 37 0 0 0
SMALL
GASTEIGER

@<TRIPOS>ATOM
      1 C         138.6944  141.5704  158.7807 C.ar    1  UNL1        0.1122
      2 N         138.4709  141.8545  160.2366 N.ar    1  UNL1       -0.2259
      3 C         138.5508  140.5541  160.9802 C.ar    1  UNL1        0.1412
      4 C         138.8237  139.4664  159.9838 C.ar    1  UNL1        0.0710
      5 S         138.9124  140.0945  158.6246 S.2     1  UNL1       -0.0670
      6 C         141.8443  145.8012  157.5856 C.3     1  UNL1        0.0320
      7 C         140.7959  144.7288  157.6154 C.3     1  UNL1        0.1155
      8 C         139.7521  144.6703  156.5398 C.3     1  UNL1        0.0328
      9 C         138.7037  143.5979  156.5697 C.3     1  UNL1        0.0426
     10 C         137.6599  143.5394  155.4940 C.3     1  UNL1        0.0673
     11 S         136.6114  142.4671  155.5239 S.3     1  UNL1       -0.0807
     12 C         136.6068  141.4533  156.6295 C.2     1  UNL1        0.1483
     13 N         135.5584  140.3809  156.6593 N.pl3   1  UNL1       -0.3380
     14 N         137.6506  141.5118  157.7051 N.2     1  UNL1       -0.2464
     15 C         138.6990  142.5842  157.6752 C.3     1  UNL1        0.1549
     16 C         139.7428  142.6427  158.7508 C.3     1  UNL1        0.1705
     17 O         140.7913  143.7151  158.7210 O.3     1  UNL1       -0.3538
     18 H         134.8733  140.3425  155.9533 H       1  UNL1        0.1442
     19 H         135.5554  139.7156  157.3849 H       1  UNL1        0.1442
     20 N         138.3867  140.3732  162.4601 N.am    1  UNL1       -0.2641
     21 C         139.5943  140.3274  163.3486 C.2     1  UNL1        0.2683
     22 O         140.9662  140.4624  162.7570 O.2     1  UNL1       -0.2681
     23 H         137.4863  140.2846  162.8484 H       1  UNL1        0.1566
     24 C         139.4302  140.1465  164.8285 C.ar    1  UNL1        0.1350
     25 C         138.4184  139.1737  165.3576 C.ar    1  UNL1        0.0269
     26 C         138.2542  138.9929  166.8376 C.ar    1  UNL1        0.0405
     27 C         139.1019  139.7847  167.7885 C.ar    1  UNL1        0.1659
     28 C         140.1137  140.7575  167.2594 C.ar    1  UNL1        0.1360
     29 N         140.2778  140.9384  165.7795 N.ar    1  UNL1       -0.2361
     30 O         138.9377  139.6039  169.2685 O.3     1  UNL1       -0.4029
     31 C         139.7785  140.4029  170.2195 C.3     1  UNL1        0.5753
     32 F         140.6193  141.2020  171.1705 F       1  UNL1       -0.1328
     33 F         138.7414  141.4867  170.2259 F       1  UNL1       -0.1328
     34 F         140.8156  139.3192  170.2131 F       1  UNL1       -0.1328
@<TRIPOS>BOND
     1     7     6    1
     2     7     8    1
     3     9     8    1
     4     9    10    1
     5    10    11    1
     6    11    12    1
     7    12    13    1
     8    12    14    2
     9    14    15    1
    10    15     1    1
    11     1     2   ar
    12     2     3   ar
    13     3    20    1
    14    20    21   am
    15    21    22    2
    16    21    24    1
    17    24    25   ar
    18    25    26   ar
    19    26    27   ar
    20    27    30    1
    21    30    31    1
    22    31    32    1
    23    31    33    1
    24    31    34    1
    25    27    28   ar
    26    28    29   ar
    27     3     4   ar
    28     4     5   ar
    29    15    16    1
    30    16    17    1
    31    17     7    1
    32    15     9    1
    33     5     1   ar
    34    29    24   ar
    35    13    18    1
    36    13    19    1
    37    20    23    1
@<TRIPOS>MOLECULE
*****
 34 37 0 0 0
SMALL
GASTEIGER

@<TRIPOS>ATOM
      1 C         142.6298  142.2474  165.0529 C.ar    1  UNL1        0.1122
      2 N         141.7352  142.4349  163.8636 N.ar    1  UNL1       -0.2259
      3 C         142.2376  143.6160  163.0872 C.ar    1  UNL1        0.1412
      4 C         143.4427  144.1586  163.7969 C.ar    1  UNL1        0.0710
      5 S         143.6851  143.3127  165.0117 S.2     1  UNL1       -0.0670
      6 C         139.9319  141.9070  169.7279 C.3     1  UNL1        0.0320
      7 C         140.7857  141.6652  168.5185 C.3     1  UNL1        0.1155
      8 C         141.5028  140.3579  168.3559 C.3     1  UNL1        0.0328
      9 C         142.3566  140.1162  167.1465 C.3     1  UNL1        0.0426
     10 C         143.0738  138.8088  166.9839 C.3     1  UNL1        0.0673
     11 S         143.9276  138.5670  165.7745 S.3     1  UNL1       -0.0807
     12 C         144.0642  139.6327  164.7277 C.2     1  UNL1        0.1483
     13 N         144.9180  139.3910  163.5183 N.pl3   1  UNL1       -0.3380
     14 N         143.3470  140.9401  164.8903 N.2     1  UNL1       -0.2464
     15 C         142.4932  141.1818  166.0997 C.3     1  UNL1        0.1549
     16 C         141.7761  142.4891  166.2623 C.3     1  UNL1        0.1705
     17 O         140.9223  142.7308  167.4717 O.3     1  UNL1       -0.3538
     18 H         145.3887  138.5329  163.4116 H       1  UNL1        0.1442
     19 H         145.0076  140.0904  162.8313 H       1  UNL1        0.1442
     20 N         141.6398  144.1593  161.8233 N.am    1  UNL1       -0.2641
     21 C         142.2018  143.7537  160.4931 C.2     1  UNL1        0.2683
     22 O         143.3617  142.8048  160.4269 O.2     1  UNL1       -0.2681
     23 H         140.8785  144.7820  161.8668 H       1  UNL1        0.1566
     24 C         141.6041  144.2969  159.2292 C.ar    1  UNL1        0.1350
     25 C         140.3361  143.7079  158.6857 C.ar    1  UNL1        0.0269
     26 C         139.7383  144.2512  157.4217 C.ar    1  UNL1        0.0405
     27 C         140.4084  145.3833  156.7013 C.ar    1  UNL1        0.1659
     28 C         141.6764  145.9723  157.2449 C.ar    1  UNL1        0.1360
     29 N         142.2742  145.4291  158.5088 N.ar    1  UNL1       -0.2361
     30 O         139.8106  145.9265  155.4374 O.3     1  UNL1       -0.4029
     31 C         139.6819  147.4085  155.2452 C.3     1  UNL1        0.5753
     32 F         139.5532  148.8906  155.0529 F       1  UNL1       -0.1328
     33 F         138.6075  147.4510  156.2910 F       1  UNL1       -0.1328
     34 F         140.7564  147.3662  154.1993 F       1  UNL1       -0.1328
@<TRIPOS>BOND
     1     7     6    1
     2     7     8    1
     3     9     8    1
     4     9    10    1
     5    10    11    1
     6    11    12    1
     7    12    13    1
     8    12    14    2
     9    14    15    1
    10    15     1    1
    11     1     2   ar
    12     2     3   ar
    13     3    20    1
    14    20    21   am
    15    21    22    2
    16    21    24    1
    17    24    25   ar
    18    25    26   ar
    19    26    27   ar
    20    27    30    1
    21    30    31    1
    22    31    32    1
    23    31    33    1
    24    31    34    1
    25    27    28   ar
    26    28    29   ar
    27     3     4   ar
    28     4     5   ar
    29    15    16    1
    30    16    17    1
    31    17     7    1
    32    15     9    1
    33     5     1   ar
    34    29    24   ar
    35    13    18    1
    36    13    19    1
    37    20    23    1
@<TRIPOS>MOLECULE
*****
 34 37 0 0 0
SMALL
GASTEIGER

@<TRIPOS>ATOM
      1 C         142.9406  135.5153  155.7317 C.ar    1  UNL1        0.1122
      2 N         141.7590  136.1465  156.4066 N.ar    1  UNL1       -0.2259
      3 C         142.0708  137.5973  156.6261 C.ar    1  UNL1        0.1412
      4 C         143.4452  137.8627  156.0869 C.ar    1  UNL1        0.0710
      5 S         143.9827  136.5761  155.5341 S.2     1  UNL1       -0.0670
      6 C         145.0506  131.1202  158.0727 C.3     1  UNL1        0.0320
      7 C         144.3869  132.1056  157.1570 C.3     1  UNL1        0.1155
      8 C         143.8418  131.6518  155.8353 C.3     1  UNL1        0.0328
      9 C         143.1780  132.6372  154.9196 C.3     1  UNL1        0.0426
     10 C         142.6329  132.1834  153.5979 C.3     1  UNL1        0.0673
     11 S         141.9691  133.1687  152.6822 S.3     1  UNL1       -0.0807
     12 C         141.8504  134.6079  153.0883 C.2     1  UNL1        0.1483
     13 N         141.1866  135.5932  152.1726 N.pl3   1  UNL1       -0.3380
     14 N         142.3955  135.0616  154.4100 N.2     1  UNL1       -0.2464
     15 C         143.0593  134.0763  155.3257 C.3     1  UNL1        0.1549
     16 C         143.6044  134.5300  156.6474 C.3     1  UNL1        0.1705
     17 O         144.2682  133.5446  157.5631 O.3     1  UNL1       -0.3538
     18 H         140.8288  135.2954  151.3051 H       1  UNL1        0.1442
     19 H         141.1087  136.5378  152.4391 H       1  UNL1        0.1442
     20 N         141.1670  138.6055  157.2716 N.am    1  UNL1       -0.2641
     21 C         141.3012  138.9046  158.7352 C.2     1  UNL1        0.2683
     22 O         142.3393  138.1954  159.5535 O.2     1  UNL1       -0.2681
     23 H         140.4857  139.0709  156.7345 H       1  UNL1        0.1566
     24 C         140.3974  139.9128  159.3806 C.ar    1  UNL1        0.1350
     25 C         140.7385  140.4701  160.7309 C.ar    1  UNL1        0.0269
     26 C         139.8347  141.4783  161.3763 C.ar    1  UNL1        0.0405
     27 C         138.5898  141.9293  160.6716 C.ar    1  UNL1        0.1659
     28 C         138.2487  141.3720  159.3213 C.ar    1  UNL1        0.1360
     29 N         139.1525  140.3638  158.6759 N.ar    1  UNL1       -0.2361
     30 O         137.6860  142.9375  161.3170 O.3     1  UNL1       -0.4029
     31 C         137.7186  143.1306  162.8041 C.3     1  UNL1        0.5753
     32 F         137.7513  143.3237  164.2913 F       1  UNL1       -0.1328
     33 F         138.4629  144.4199  162.6204 F       1  UNL1       -0.1328
     34 F         136.9744  141.8412  162.9878 F       1  UNL1       -0.1328
@<TRIPOS>BOND
     1     7     6    1
     2     7     8    1
     3     9     8    1
     4     9    10    1
     5    10    11    1
     6    11    12    1
     7    12    13    1
     8    12    14    2
     9    14    15    1
    10    15     1    1
    11     1     2   ar
    12     2     3   ar
    13     3    20    1
    14    20    21   am
    15    21    22    2
    16    21    24    1
    17    24    25   ar
    18    25    26   ar
    19    26    27   ar
    20    27    30    1
    21    30    31    1
    22    31    32    1
    23    31    33    1
    24    31    34    1
    25    27    28   ar
    26    28    29   ar
    27     3     4   ar
    28     4     5   ar
    29    15    16    1
    30    16    17    1
    31    17     7    1
    32    15     9    1
    33     5     1   ar
    34    29    24   ar
    35    13    18    1
    36    13    19    1
    37    20    23    1
@<TRIPOS>MOLECULE
*****
 34 37 0 0 0
SMALL
GASTEIGER

@<TRIPOS>ATOM
      1 C         139.5869  141.6555  159.0496 C.ar    1  UNL1        0.1122
      2 N         139.2825  141.9228  160.4939 N.ar    1  UNL1       -0.2259
      3 C         140.0879  140.9660  161.3222 C.ar    1  UNL1        0.1412
      4 C         140.8901  140.1074  160.3898 C.ar    1  UNL1        0.0710
      5 S         140.5805  140.5335  158.9853 S.2     1  UNL1       -0.0670
      6 C         135.3030  140.7934  155.8630 C.3     1  UNL1        0.0320
      7 C         136.5356  141.3231  156.5339 C.3     1  UNL1        0.1155
      8 C         137.1820  142.5797  156.0311 C.3     1  UNL1        0.0328
      9 C         138.4145  143.1094  156.7020 C.3     1  UNL1        0.0426
     10 C         139.0609  144.3662  156.1991 C.3     1  UNL1        0.0673
     11 S         140.2935  144.8959  156.8701 S.3     1  UNL1       -0.0807
     12 C         140.8797  144.1689  158.0439 C.2     1  UNL1        0.1483
     13 N         142.1123  144.6986  158.7149 N.pl3   1  UNL1       -0.3380
     14 N         140.2333  142.9122  158.5468 N.2     1  UNL1       -0.2464
     15 C         139.0007  142.3825  157.8758 C.3     1  UNL1        0.1549
     16 C         138.3543  141.1258  158.3787 C.3     1  UNL1        0.1705
     17 O         137.1218  140.5961  157.7077 O.3     1  UNL1       -0.3538
     18 H         142.5365  145.5234  158.3848 H       1  UNL1        0.1442
     19 H         142.4970  144.2214  159.4853 H       1  UNL1        0.1442
     20 N         140.0906  140.8826  162.8199 N.am    1  UNL1       -0.2641
     21 C         139.0670  140.0440  163.5261 C.2     1  UNL1        0.2683
     22 O         138.0406  139.2889  162.7347 O.2     1  UNL1       -0.2681
     23 H         140.7643  141.3782  163.3393 H       1  UNL1        0.1566
     24 C         139.0697  139.9606  165.0238 C.ar    1  UNL1        0.1350
     25 C         138.1030  139.0539  165.7262 C.ar    1  UNL1        0.0269
     26 C         138.1057  138.9704  167.2239 C.ar    1  UNL1        0.0405
     27 C         139.0751  139.7935  168.0191 C.ar    1  UNL1        0.1659
     28 C         140.0419  140.7002  167.3167 C.ar    1  UNL1        0.1360
     29 N         140.0392  140.7837  165.8191 N.ar    1  UNL1       -0.2361
     30 O         139.0779  139.7101  169.5168 O.3     1  UNL1       -0.4029
     31 C         140.0360  140.5456  170.3128 C.3     1  UNL1        0.5753
     32 F         140.9942  141.3812  171.1088 F       1  UNL1       -0.1328
     33 F         141.0037  139.4001  170.3506 F       1  UNL1       -0.1328
     34 F         139.0684  141.6912  170.2750 F       1  UNL1       -0.1328
@<TRIPOS>BOND
     1     7     6    1
     2     7     8    1
     3     9     8    1
     4     9    10    1
     5    10    11    1
     6    11    12    1
     7    12    13    1
     8    12    14    2
     9    14    15    1
    10    15     1    1
    11     1     2   ar
    12     2     3   ar
    13     3    20    1
    14    20    21   am
    15    21    22    2
    16    21    24    1
    17    24    25   ar
    18    25    26   ar
    19    26    27   ar
    20    27    30    1
    21    30    31    1
    22    31    32    1
    23    31    33    1
    24    31    34    1
    25    27    28   ar
    26    28    29   ar
    27     3     4   ar
    28     4     5   ar
    29    15    16    1
    30    16    17    1
    31    17     7    1
    32    15     9    1
    33     5     1   ar
    34    29    24   ar
    35    13    18    1
    36    13    19    1
    37    20    23    1
@<TRIPOS>MOLECULE
*****
 34 37 0 0 0
SMALL
GASTEIGER

@<TRIPOS>ATOM
      1 C         141.5634  142.3221  163.0124 C.ar    1  UNL1        0.1122
      2 N         142.0875  141.8074  161.7046 N.ar    1  UNL1       -0.2259
      3 C         143.5171  142.2429  161.5744 C.ar    1  UNL1        0.1412
      4 C         143.8764  143.0266  162.8019 C.ar    1  UNL1        0.0710
      5 S         142.6691  143.0756  163.6906 S.2     1  UNL1       -0.0670
      6 C         138.9276  138.0773  165.0823 C.3     1  UNL1        0.0320
      7 C         139.3441  139.4245  164.5709 C.3     1  UNL1        0.1155
      8 C         138.3744  140.5686  164.5951 C.3     1  UNL1        0.0328
      9 C         138.7909  141.9158  164.0837 C.3     1  UNL1        0.0426
     10 C         137.8210  143.0599  164.1080 C.3     1  UNL1        0.0673
     11 S         138.2375  144.4071  163.5966 S.3     1  UNL1       -0.0807
     12 C         139.6239  144.6102  163.0609 C.2     1  UNL1        0.1483
     13 N         140.0404  145.9574  162.5495 N.pl3   1  UNL1       -0.3380
     14 N         140.5936  143.4661  163.0367 N.2     1  UNL1       -0.2464
     15 C         140.1771  142.1189  163.5481 C.3     1  UNL1        0.1549
     16 C         141.1469  140.9749  163.5239 C.3     1  UNL1        0.1705
     17 O         140.7304  139.6277  164.0353 O.3     1  UNL1       -0.3538
     18 H         139.4038  146.7083  162.5654 H       1  UNL1        0.1442
     19 H         140.9502  146.0907  162.1979 H       1  UNL1        0.1442
     20 N         144.4274  141.9466  160.4197 N.am    1  UNL1       -0.2641
     21 C         144.2665  142.6912  159.1276 C.2     1  UNL1        0.2683
     22 O         143.1952  143.7322  158.9903 O.2     1  UNL1       -0.2681
     23 H         145.1304  141.2633  160.5098 H       1  UNL1        0.1566
     24 C         145.1768  142.3949  157.9728 C.ar    1  UNL1        0.1350
     25 C         146.5700  142.9505  157.9543 C.ar    1  UNL1        0.0269
     26 C         147.4803  142.6542  156.7995 C.ar    1  UNL1        0.0405
     27 C         146.9974  141.8023  155.6633 C.ar    1  UNL1        0.1659
     28 C         145.6042  141.2467  155.6818 C.ar    1  UNL1        0.1360
     29 N         144.6939  141.5430  156.8366 N.ar    1  UNL1       -0.2361
     30 O         147.9077  141.5060  154.5085 O.3     1  UNL1       -0.4029
     31 C         149.2810  142.1075  154.4625 C.3     1  UNL1        0.5753
     32 F         150.6543  142.7091  154.4164 F       1  UNL1       -0.1328
     33 F         148.7447  143.2726  153.6847 F       1  UNL1       -0.1328
     34 F         149.8174  140.9425  155.2403 F       1  UNL1       -0.1328
@<TRIPOS>BOND
     1     7     6    1
     2     7     8    1
     3     9     8    1
     4     9    10    1
     5    10    11    1
     6    11    12    1
     7    12    13    1
     8    12    14    2
     9    14    15    1
    10    15     1    1
    11     1     2   ar
    12     2     3   ar
    13     3    20    1
    14    20    21   am
    15    21    22    2
    16    21    24    1
    17    24    25   ar
    18    25    26   ar
    19    26    27   ar
    20    27    30    1
    21    30    31    1
    22    31    32    1
    23    31    33    1
    24    31    34    1
    25    27    28   ar
    26    28    29   ar
    27     3     4   ar
    28     4     5   ar
    29    15    16    1
    30    16    17    1
    31    17     7    1
    32    15     9    1
    33     5     1   ar
    34    29    24   ar
    35    13    18    1
    36    13    19    1
    37    20    23    1
@<TRIPOS>MOLECULE
*****
 34 37 0 0 0
SMALL
GASTEIGER

@<TRIPOS>ATOM
      1 C         139.4661  140.6051  163.9271 C.ar    1  UNL1        0.1122
      2 N         140.3124  140.3337  162.7187 N.ar    1  UNL1       -0.2259
      3 C         139.8552  139.0394  162.1137 C.ar    1  UNL1        0.1412
      4 C         138.7263  138.5109  162.9482 C.ar    1  UNL1        0.0710
      5 S         138.4858  139.4785  164.0689 S.2     1  UNL1       -0.0670
      6 C         141.5492  141.3733  168.8587 C.3     1  UNL1        0.0320
      7 C         140.8928  141.5135  167.5172 C.3     1  UNL1        0.1155
      8 C         140.3504  142.8429  167.0830 C.3     1  UNL1        0.0328
      9 C         139.6941  142.9832  165.7415 C.3     1  UNL1        0.0426
     10 C         139.1517  144.3126  165.3073 C.3     1  UNL1        0.0673
     11 S         138.4953  144.4529  163.9658 S.3     1  UNL1       -0.0807
     12 C         138.3814  143.2638  163.0586 C.2     1  UNL1        0.1483
     13 N         137.7250  143.4040  161.7171 N.pl3   1  UNL1       -0.3380
     14 N         138.9238  141.9344  163.4928 N.2     1  UNL1       -0.2464
     15 C         139.5801  141.7941  164.8343 C.3     1  UNL1        0.1549
     16 C         140.1225  140.4648  165.2685 C.3     1  UNL1        0.1705
     17 O         140.7788  140.3245  166.6100 O.3     1  UNL1       -0.3538
     18 H         137.3691  144.2766  161.4321 H       1  UNL1        0.1442
     19 H         137.6502  142.6236  161.1217 H       1  UNL1        0.1442
     20 N         140.4265  138.3880  160.8892 N.am    1  UNL1       -0.2641
     21 C         139.9460  138.7973  159.5286 C.2     1  UNL1        0.2683
     22 O         138.8940  139.8580  159.3923 O.2     1  UNL1       -0.2681
     23 H         141.1169  137.6919  160.9787 H       1  UNL1        0.1566
     24 C         140.5173  138.1459  158.3041 C.ar    1  UNL1        0.1350
     25 C         142.0032  138.0082  158.1519 C.ar    1  UNL1        0.0269
     26 C         142.5745  137.3569  156.9275 C.ar    1  UNL1        0.0405
     27 C         141.6600  136.8432  155.8552 C.ar    1  UNL1        0.1659
     28 C         140.1741  136.9809  156.0075 C.ar    1  UNL1        0.1360
     29 N         139.6028  137.6322  157.2319 N.ar    1  UNL1       -0.2361
     30 O         142.2313  136.1918  154.6308 O.3     1  UNL1       -0.4029
     31 C         142.7247  134.7768  154.6950 C.3     1  UNL1        0.5753
     32 F         143.2182  133.3618  154.7592 F       1  UNL1       -0.1328
     33 F         144.0999  135.2716  155.0329 F       1  UNL1       -0.1328
     34 F         141.3496  134.2820  154.3571 F       1  UNL1       -0.1328
@<TRIPOS>BOND
     1     7     6    1
     2     7     8    1
     3     9     8    1
     4     9    10    1
     5    10    11    1
     6    11    12    1
     7    12    13    1
     8    12    14    2
     9    14    15    1
    10    15     1    1
    11     1     2   ar
    12     2     3   ar
    13     3    20    1
    14    20    21   am
    15    21    22    2
    16    21    24    1
    17    24    25   ar
    18    25    26   ar
    19    26    27   ar
    20    27    30    1
    21    30    31    1
    22    31    32    1
    23    31    33    1
    24    31    34    1
    25    27    28   ar
    26    28    29   ar
    27     3     4   ar
    28     4     5   ar
    29    15    16    1
    30    16    17    1
    31    17     7    1
    32    15     9    1
    33     5     1   ar
    34    29    24   ar
    35    13    18    1
    36    13    19    1
    37    20    23    1
@<TRIPOS>MOLECULE
*****
 34 37 0 0 0
SMALL
GASTEIGER

@<TRIPOS>ATOM
      1 C         141.4802  141.0359  164.7396 C.ar    1  UNL1        0.1122
      2 N         140.7292  141.8102  163.6973 N.ar    1  UNL1       -0.2259
      3 C         141.5000  141.7271  162.4131 C.ar    1  UNL1        0.1412
      4 C         142.7274  140.9014  162.6618 C.ar    1  UNL1        0.0710
      5 S         142.7151  140.4742  164.0996 S.2     1  UNL1       -0.0670
      6 C         137.4653  138.3540  167.1765 C.3     1  UNL1        0.0320
      7 C         138.6664  139.1877  166.8412 C.3     1  UNL1        0.1155
      8 C         139.4559  139.8404  167.9369 C.3     1  UNL1        0.0328
      9 C         140.6570  140.6741  167.6016 C.3     1  UNL1        0.0426
     10 C         141.4465  141.3268  168.6974 C.3     1  UNL1        0.0673
     11 S         142.6476  142.1605  168.3621 S.3     1  UNL1       -0.0807
     12 C         143.0592  142.3413  166.9310 C.2     1  UNL1        0.1483
     13 N         144.2603  143.1750  166.5957 N.pl3   1  UNL1       -0.3380
     14 N         142.2697  141.6886  165.8353 N.2     1  UNL1       -0.2464
     15 C         141.0686  140.8550  166.1706 C.3     1  UNL1        0.1549
     16 C         140.2791  140.2022  165.0749 C.3     1  UNL1        0.1705
     17 O         139.0780  139.3686  165.4102 O.3     1  UNL1       -0.3538
     18 H         144.7784  143.6034  167.3149 H       1  UNL1        0.1442
     19 H         144.5304  143.2937  165.6565 H       1  UNL1        0.1442
     20 N         141.1116  142.3588  161.1092 N.am    1  UNL1       -0.2641
     21 C         141.7687  143.6329  160.6680 C.2     1  UNL1        0.2683
     22 O         142.8144  144.2753  161.5306 O.2     1  UNL1       -0.2681
     23 H         140.4254  141.9372  160.5431 H       1  UNL1        0.1566
     24 C         141.3804  144.2646  159.3641 C.ar    1  UNL1        0.1350
     25 C         140.1076  143.8570  158.6829 C.ar    1  UNL1        0.0269
     26 C         139.7192  144.4887  157.3790 C.ar    1  UNL1        0.0405
     27 C         140.6035  145.5279  156.7563 C.ar    1  UNL1        0.1659
     28 C         141.8763  145.9355  157.4375 C.ar    1  UNL1        0.1360
     29 N         142.2647  145.3038  158.7414 N.ar    1  UNL1       -0.2361
     30 O         140.2151  146.1596  155.4525 O.3     1  UNL1       -0.4029
     31 C         138.7788  146.1653  155.0203 C.3     1  UNL1        0.5753
     32 F         137.3425  146.1709  154.5880 F       1  UNL1       -0.1328
     33 F         138.5236  147.3650  155.8837 F       1  UNL1       -0.1328
     34 F         139.0340  144.9656  154.1568 F       1  UNL1       -0.1328
@<TRIPOS>BOND
     1     7     6    1
     2     7     8    1
     3     9     8    1
     4     9    10    1
     5    10    11    1
     6    11    12    1
     7    12    13    1
     8    12    14    2
     9    14    15    1
    10    15     1    1
    11     1     2   ar
    12     2     3   ar
    13     3    20    1
    14    20    21   am
    15    21    22    2
    16    21    24    1
    17    24    25   ar
    18    25    26   ar
    19    26    27   ar
    20    27    30    1
    21    30    31    1
    22    31    32    1
    23    31    33    1
    24    31    34    1
    25    27    28   ar
    26    28    29   ar
    27     3     4   ar
    28     4     5   ar
    29    15    16    1
    30    16    17    1
    31    17     7    1
    32    15     9    1
    33     5     1   ar
    34    29    24   ar
    35    13    18    1
    36    13    19    1
    37    20    23    1
@<TRIPOS>MOLECULE
*****
 34 37 0 0 0
SMALL
GASTEIGER

@<TRIPOS>ATOM
      1 C         140.3895  143.3442  163.8952 C.ar    1  UNL1        0.1122
      2 N         139.9697  142.5861  162.6708 N.ar    1  UNL1       -0.2259
      3 C         138.9927  143.4349  161.9123 C.ar    1  UNL1        0.1412
      4 C         138.8088  144.7176  162.6679 C.ar    1  UNL1        0.0710
      5 S         139.6720  144.6615  163.8934 S.2     1  UNL1       -0.0670
      6 C         139.9500  140.1569  168.2423 C.3     1  UNL1        0.0320
      7 C         140.4190  141.0608  167.1409 C.3     1  UNL1        0.1155
      8 C         141.8553  141.4890  167.0825 C.3     1  UNL1        0.0328
      9 C         142.3243  142.3929  165.9811 C.3     1  UNL1        0.0426
     10 C         143.7607  142.8212  165.9228 C.3     1  UNL1        0.0673
     11 S         144.2297  143.7250  164.8214 S.3     1  UNL1       -0.0807
     12 C         143.2622  144.2007  163.7784 C.2     1  UNL1        0.1483
     13 N         143.7312  145.1046  162.6770 N.pl3   1  UNL1       -0.3380
     14 N         141.8258  143.7724  163.8368 N.2     1  UNL1       -0.2464
     15 C         141.3569  142.8686  164.9381 C.3     1  UNL1        0.1549
     16 C         139.9205  142.4403  164.9965 C.3     1  UNL1        0.1705
     17 O         139.4516  141.5364  166.0979 O.3     1  UNL1       -0.3538
     18 H         144.6739  145.3856  162.6386 H       1  UNL1        0.1442
     19 H         143.0962  145.4167  161.9924 H       1  UNL1        0.1442
     20 N         138.3182  143.0658  160.6243 N.am    1  UNL1       -0.2641
     21 C         139.1280  142.9101  159.3714 C.2     1  UNL1        0.2683
     22 O         140.6124  143.1236  159.4064 O.2     1  UNL1       -0.2681
     23 H         137.3440  142.9257  160.6014 H       1  UNL1        0.1566
     24 C         138.4535  142.5410  158.0835 C.ar    1  UNL1        0.1350
     25 C         137.6990  141.2491  157.9753 C.ar    1  UNL1        0.0269
     26 C         137.0245  140.8800  156.6874 C.ar    1  UNL1        0.0405
     27 C         137.1044  141.8028  155.5076 C.ar    1  UNL1        0.1659
     28 C         137.8589  143.0947  155.6158 C.ar    1  UNL1        0.1360
     29 N         138.5334  143.4638  156.9037 N.ar    1  UNL1       -0.2361
     30 O         136.4299  141.4337  154.2197 O.3     1  UNL1       -0.4029
     31 C         136.2686  139.9905  153.8443 C.3     1  UNL1        0.5753
     32 F         136.1073  138.5472  153.4689 F       1  UNL1       -0.1328
     33 F         134.7960  140.0848  154.1138 F       1  UNL1       -0.1328
     34 F         137.7412  139.8960  153.5748 F       1  UNL1       -0.1328
@<TRIPOS>BOND
     1     7     6    1
     2     7     8    1
     3     9     8    1
     4     9    10    1
     5    10    11    1
     6    11    12    1
     7    12    13    1
     8    12    14    2
     9    14    15    1
    10    15     1    1
    11     1     2   ar
    12     2     3   ar
    13     3    20    1
    14    20    21   am
    15    21    22    2
    16    21    24    1
    17    24    25   ar
    18    25    26   ar
    19    26    27   ar
    20    27    30    1
    21    30    31    1
    22    31    32    1
    23    31    33    1
    24    31    34    1
    25    27    28   ar
    26    28    29   ar
    27     3     4   ar
    28     4     5   ar
    29    15    16    1
    30    16    17    1
    31    17     7    1
    32    15     9    1
    33     5     1   ar
    34    29    24   ar
    35    13    18    1
    36    13    19    1
    37    20    23    1
@<TRIPOS>MOLECULE
*****
 34 37 0 0 0
SMALL
GASTEIGER

@<TRIPOS>ATOM
      1 C         142.3898  140.4453  164.1341 C.ar    1  UNL1        0.1122
      2 N         141.6731  139.5542  163.1634 N.ar    1  UNL1       -0.2259
      3 C         142.6298  139.2036  162.0625 C.ar    1  UNL1        0.1412
      4 C         143.9378  139.8782  162.3528 C.ar    1  UNL1        0.0710
      5 S         143.7895  140.6456  163.6331 S.2     1  UNL1       -0.0670
      6 C         139.1169  144.6309  165.1437 C.3     1  UNL1        0.0320
      7 C         140.0142  143.4316  165.2244 C.3     1  UNL1        0.1155
      8 C         140.3306  142.8200  166.5570 C.3     1  UNL1        0.0328
      9 C         141.2280  141.6207  166.6377 C.3     1  UNL1        0.0426
     10 C         141.5444  141.0092  167.9704 C.3     1  UNL1        0.0673
     11 S         142.4417  139.8099  168.0512 S.3     1  UNL1       -0.0807
     12 C         143.0226  139.2222  166.7992 C.2     1  UNL1        0.1483
     13 N         143.9200  138.0229  166.8800 N.pl3   1  UNL1       -0.3380
     14 N         142.7062  139.8338  165.4667 N.2     1  UNL1       -0.2464
     15 C         141.8089  141.0330  165.3859 C.3     1  UNL1        0.1549
     16 C         141.4925  141.6446  164.0533 C.3     1  UNL1        0.1705
     17 O         140.5951  142.8439  163.9726 O.3     1  UNL1       -0.3538
     18 H         144.1277  137.6215  167.7546 H       1  UNL1        0.1442
     19 H         144.3013  137.6372  166.0583 H       1  UNL1        0.1442
     20 N         142.3310  138.3317  160.8791 N.am    1  UNL1       -0.2641
     21 C         142.1816  138.9415  159.5169 C.2     1  UNL1        0.2683
     22 O         142.3309  140.4234  159.3380 O.2     1  UNL1       -0.2681
     23 H         142.2330  137.3592  160.9965 H       1  UNL1        0.1566
     24 C         141.8828  138.0696  158.3335 C.ar    1  UNL1        0.1350
     25 C         140.5336  138.1279  157.6805 C.ar    1  UNL1        0.0269
     26 C         140.2348  137.2560  156.4971 C.ar    1  UNL1        0.0405
     27 C         141.2851  136.3257  155.9667 C.ar    1  UNL1        0.1659
     28 C         142.6342  136.2673  156.6198 C.ar    1  UNL1        0.1360
     29 N         142.9330  137.1393  157.8031 N.ar    1  UNL1       -0.2361
     30 O         140.9863  135.4538  154.7833 O.3     1  UNL1       -0.4029
     31 C         141.8601  134.2723  154.4826 C.3     1  UNL1        0.5753
     32 F         142.7340  133.0908  154.1818 F       1  UNL1       -0.1328
     33 F         142.5824  135.0720  153.4391 F       1  UNL1       -0.1328
     34 F         141.1379  133.4725  155.5260 F       1  UNL1       -0.1328
@<TRIPOS>BOND
     1     7     6    1
     2     7     8    1
     3     9     8    1
     4     9    10    1
     5    10    11    1
     6    11    12    1
     7    12    13    1
     8    12    14    2
     9    14    15    1
    10    15     1    1
    11     1     2   ar
    12     2     3   ar
    13     3    20    1
    14    20    21   am
    15    21    22    2
    16    21    24    1
    17    24    25   ar
    18    25    26   ar
    19    26    27   ar
    20    27    30    1
    21    30    31    1
    22    31    32    1
    23    31    33    1
    24    31    34    1
    25    27    28   ar
    26    28    29   ar
    27     3     4   ar
    28     4     5   ar
    29    15    16    1
    30    16    17    1
    31    17     7    1
    32    15     9    1
    33     5     1   ar
    34    29    24   ar
    35    13    18    1
    36    13    19    1
    37    20    23    1
