@<TRIPOS>MOLECULE
*****
 33 36 0 0 0
SMALL
GASTEIGER

@<TRIPOS>ATOM
      1 N         138.0767  140.1512  162.4274 N.3     1  UNL1       -0.2710
      2 C         138.2689  140.9049  161.1448 C.3     1  UNL1        0.0735
      3 C         138.1582  142.4007  161.1301 C.3     1  UNL1        0.0331
      4 C         137.8553  143.1428  162.3979 C.3     1  UNL1        0.0570
      5 C         137.6630  142.3891  163.6805 C.3     1  UNL1        0.0331
      6 C         137.7737  140.8933  163.6952 C.3     1  UNL1        0.0735
      7 N         137.7446  144.6387  162.3832 N.3     1  UNL1       -0.2947
      8 H         136.9786  144.8834  163.0107 H       1  UNL1        0.1235
      9 C         138.9188  145.4816  162.7840 C.3     1  UNL1        0.0972
     10 C         140.3124  144.9491  162.6279 C.ar    1  UNL1        0.0135
     11 C         140.9736  144.9616  161.2816 C.ar    1  UNL1        0.0955
     12 N         142.3672  144.4291  161.1255 N.ar    1  UNL1       -0.2477
     13 C         143.0996  143.8841  162.3158 C.ar    1  UNL1        0.0689
     14 C         144.4931  143.3516  162.1597 C.3     1  UNL1        0.0528
     15 C         142.4383  143.8716  163.6621 C.ar    1  UNL1        0.0817
     16 C         141.0447  144.4041  163.8182 C.ar    1  UNL1        0.0101
     17 C         143.1706  143.3267  164.8524 C.1     1  UNL1        0.1016
     18 N         143.9030  142.7817  166.0426 N.1     1  UNL1       -0.1908
     19 C         138.1874  138.6553  162.4421 C.3     1  UNL1        0.0970
     20 C         138.8993  137.9670  163.5688 C.3     1  UNL1        0.1264
     21 C         139.9166  139.6395  167.6206 C.ar    1  UNL1        0.1593
     22 C         141.3344  140.0051  167.9467 C.ar    1  UNL1        0.1357
     23 N         142.4130  139.8132  166.9221 N.ar    1  UNL1       -0.2392
     24 C         142.0739  139.2557  165.5715 C.ar    1  UNL1        0.0975
     25 C         143.1525  139.0637  164.5470 C.ar    1  UNL1        0.0255
     26 C         142.8134  138.5062  163.1964 C.ar    1  UNL1        0.0623
     27 C         141.3956  138.1406  162.8703 C.ar    1  UNL1        0.2611
     28 O         141.0565  137.5831  161.5197 O.2     1  UNL1       -0.2670
     29 N         140.3170  138.3326  163.8948 N.ar    1  UNL1       -0.2926
     30 C         140.6562  138.8901  165.2455 C.ar    1  UNL1        0.0832
     31 C         139.5775  139.0820  166.2701 C.ar    1  UNL1        0.0573
     32 C         139.1262  140.5952  169.9036 C.3     1  UNL1        0.2525
     33 O         138.8380  139.8315  168.6452 O.3     1  UNL1       -0.4698
@<TRIPOS>BOND
     1    32    33    1
     2    33    21    1
     3    21    22   ar
     4    22    23   ar
     5    23    24   ar
     6    24    25   ar
     7    25    26   ar
     8    26    27   ar
     9    27    28    2
    10    27    29   ar
    11    29    20    1
    12    20    19    1
    13    19     1    1
    14     1     2    1
    15     2     3    1
    16     3     4    1
    17     4     7    1
    18     7     9    1
    19     9    10    1
    20    10    11   ar
    21    11    12   ar
    22    12    13   ar
    23    13    14    1
    24    13    15   ar
    25    15    17    1
    26    17    18    3
    27    15    16   ar
    28     4     5    1
    29     5     6    1
    30    29    30   ar
    31    30    31   ar
    32    31    21   ar
    33    30    24   ar
    34     6     1    1
    35    16    10   ar
    36     7     8    1
@<TRIPOS>MOLECULE
*****
 33 36 0 0 0
SMALL
GASTEIGER

@<TRIPOS>ATOM
      1 N         142.9539  141.5226  165.7312 N.3     1  UNL1       -0.2710
      2 C         143.3791  140.0980  165.9306 C.3     1  UNL1        0.0735
      3 C         143.8821  139.2957  164.7674 C.3     1  UNL1        0.0331
      4 C         143.9600  139.9179  163.4048 C.3     1  UNL1        0.0570
      5 C         143.5349  141.3425  163.2054 C.3     1  UNL1        0.0331
      6 C         143.0318  142.1449  164.3686 C.3     1  UNL1        0.0735
      7 N         144.4631  139.1155  162.2415 N.3     1  UNL1       -0.2947
      8 H         145.3821  138.7598  162.5046 H       1  UNL1        0.1235
      9 C         143.6722  137.9434  161.7408 C.3     1  UNL1        0.0972
     10 C         142.1731  137.9960  161.7388 C.ar    1  UNL1        0.0135
     11 C         141.4024  137.4644  162.9107 C.ar    1  UNL1        0.0955
     12 N         139.9034  137.5170  162.9087 N.ar    1  UNL1       -0.2477
     13 C         139.1750  138.1012  161.7346 C.ar    1  UNL1        0.0689
     14 C         137.6759  138.1538  161.7326 C.3     1  UNL1        0.0528
     15 C         139.9457  138.6328  160.5627 C.ar    1  UNL1        0.0817
     16 C         141.4448  138.5801  160.5648 C.ar    1  UNL1        0.0101
     17 C         139.2174  139.2169  159.3887 C.1     1  UNL1        0.1016
     18 N         138.4890  139.8011  158.2147 N.1     1  UNL1       -0.1908
     19 C         142.4508  142.3250  166.8944 C.3     1  UNL1        0.0970
     20 C         140.9767  142.5272  167.0846 C.3     1  UNL1        0.1264
     21 C         138.6823  143.7473  163.4107 C.ar    1  UNL1        0.1593
     22 C         137.7077  142.7946  162.7844 C.ar    1  UNL1        0.1357
     23 N         137.4978  141.4351  163.3827 N.ar    1  UNL1       -0.2392
     24 C         138.2626  141.0285  164.6072 C.ar    1  UNL1        0.0975
     25 C         138.0527  139.6690  165.2055 C.ar    1  UNL1        0.0255
     26 C         138.8175  139.2623  166.4301 C.ar    1  UNL1        0.0623
     27 C         139.7922  140.2151  167.0565 C.ar    1  UNL1        0.2611
     28 O         140.5570  139.8084  168.2811 O.2     1  UNL1       -0.2670
     29 N         140.0021  141.5745  166.4582 N.ar    1  UNL1       -0.2926
     30 C         139.2372  141.9812  165.2336 C.ar    1  UNL1        0.0832
     31 C         139.4471  143.3406  164.6353 C.ar    1  UNL1        0.0573
     32 C         140.2680  145.5414  162.4022 C.3     1  UNL1        0.2525
     33 O         138.8922  145.1067  162.8124 O.3     1  UNL1       -0.4698
@<TRIPOS>BOND
     1    32    33    1
     2    33    21    1
     3    21    22   ar
     4    22    23   ar
     5    23    24   ar
     6    24    25   ar
     7    25    26   ar
     8    26    27   ar
     9    27    28    2
    10    27    29   ar
    11    29    20    1
    12    20    19    1
    13    19     1    1
    14     1     2    1
    15     2     3    1
    16     3     4    1
    17     4     7    1
    18     7     9    1
    19     9    10    1
    20    10    11   ar
    21    11    12   ar
    22    12    13   ar
    23    13    14    1
    24    13    15   ar
    25    15    17    1
    26    17    18    3
    27    15    16   ar
    28     4     5    1
    29     5     6    1
    30    29    30   ar
    31    30    31   ar
    32    31    21   ar
    33    30    24   ar
    34     6     1    1
    35    16    10   ar
    36     7     8    1
@<TRIPOS>MOLECULE
*****
 33 36 0 0 0
SMALL
GASTEIGER

@<TRIPOS>ATOM
      1 N         137.8774  142.8855  163.1483 N.3     1  UNL1       -0.2710
      2 C         137.7801  141.7173  164.0841 C.3     1  UNL1        0.0735
      3 C         137.8711  140.3187  163.5497 C.3     1  UNL1        0.0331
      4 C         138.0593  140.0883  162.0795 C.3     1  UNL1        0.0570
      5 C         138.1566  141.2566  161.1437 C.3     1  UNL1        0.0331
      6 C         138.0656  142.6552  161.6781 C.3     1  UNL1        0.0735
      7 N         138.1503  138.6897  161.5451 N.3     1  UNL1       -0.2947
      8 H         137.6720  138.6870  160.6442 H       1  UNL1        0.1235
      9 C         139.4923  138.0568  161.3248 C.3     1  UNL1        0.0972
     10 C         140.5713  138.2084  162.3557 C.ar    1  UNL1        0.0135
     11 C         140.4711  137.4742  163.6599 C.ar    1  UNL1        0.0955
     12 N         141.5501  137.6258  164.6907 N.ar    1  UNL1       -0.2477
     13 C         142.7294  138.5116  164.4174 C.ar    1  UNL1        0.0689
     14 C         143.8084  138.6632  165.4483 C.3     1  UNL1        0.0528
     15 C         142.8296  139.2458  163.1132 C.ar    1  UNL1        0.0817
     16 C         141.7505  139.0942  162.0823 C.ar    1  UNL1        0.0101
     17 C         144.0088  140.1316  162.8399 C.1     1  UNL1        0.1016
     18 N         145.1881  141.0175  162.5665 N.1     1  UNL1       -0.1908
     19 C         137.7864  144.2842  163.6827 C.3     1  UNL1        0.0970
     20 C         138.8794  144.8262  164.5553 C.3     1  UNL1        0.1264
     21 C         141.0988  141.9896  167.2531 C.ar    1  UNL1        0.1593
     22 C         142.5297  141.6447  166.9642 C.ar    1  UNL1        0.1357
     23 N         143.2208  142.2452  165.7761 N.ar    1  UNL1       -0.2392
     24 C         142.4811  143.1907  164.8769 C.ar    1  UNL1        0.0975
     25 C         143.1722  143.7913  163.6887 C.ar    1  UNL1        0.0255
     26 C         142.4324  144.7368  162.7895 C.ar    1  UNL1        0.0623
     27 C         141.0015  145.0818  163.0783 C.ar    1  UNL1        0.2611
     28 O         140.2617  146.0273  162.1791 O.2     1  UNL1       -0.2670
     29 N         140.3103  144.4812  164.2665 N.ar    1  UNL1       -0.2926
     30 C         141.0502  143.5357  165.1657 C.ar    1  UNL1        0.0832
     31 C         140.3590  142.9351  166.3539 C.ar    1  UNL1        0.0573
     32 C         139.5575  140.1646  168.2746 C.3     1  UNL1        0.2525
     33 O         140.4076  141.3890  168.4412 O.3     1  UNL1       -0.4698
@<TRIPOS>BOND
     1    32    33    1
     2    33    21    1
     3    21    22   ar
     4    22    23   ar
     5    23    24   ar
     6    24    25   ar
     7    25    26   ar
     8    26    27   ar
     9    27    28    2
    10    27    29   ar
    11    29    20    1
    12    20    19    1
    13    19     1    1
    14     1     2    1
    15     2     3    1
    16     3     4    1
    17     4     7    1
    18     7     9    1
    19     9    10    1
    20    10    11   ar
    21    11    12   ar
    22    12    13   ar
    23    13    14    1
    24    13    15   ar
    25    15    17    1
    26    17    18    3
    27    15    16   ar
    28     4     5    1
    29     5     6    1
    30    29    30   ar
    31    30    31   ar
    32    31    21   ar
    33    30    24   ar
    34     6     1    1
    35    16    10   ar
    36     7     8    1
@<TRIPOS>MOLECULE
*****
 33 36 0 0 0
SMALL
GASTEIGER

@<TRIPOS>ATOM
      1 N         142.8947  144.1150  162.4469 N.3     1  UNL1       -0.2710
      2 C         142.1928  144.8404  163.5564 C.3     1  UNL1        0.0735
      3 C         140.7041  145.0186  163.5120 C.3     1  UNL1        0.0331
      4 C         139.9174  144.4715  162.3580 C.3     1  UNL1        0.0570
      5 C         140.6193  143.7462  161.2485 C.3     1  UNL1        0.0331
      6 C         142.1080  143.5679  161.2929 C.3     1  UNL1        0.0735
      7 N         138.4286  144.6498  162.3136 N.3     1  UNL1       -0.2947
      8 H         138.1311  144.4074  161.3685 H       1  UNL1        0.1235
      9 C         137.5524  143.8776  163.2548 C.3     1  UNL1        0.0972
     10 C         137.8804  142.4518  163.5857 C.ar    1  UNL1        0.0135
     11 C         137.6430  141.3727  162.5712 C.ar    1  UNL1        0.0955
     12 N         137.9711  139.9469  162.9021 N.ar    1  UNL1       -0.2477
     13 C         138.5365  139.6002  164.2475 C.ar    1  UNL1        0.0689
     14 C         138.8646  138.1744  164.5784 C.3     1  UNL1        0.0528
     15 C         138.7739  140.6793  165.2620 C.ar    1  UNL1        0.0817
     16 C         138.4458  142.1051  164.9311 C.ar    1  UNL1        0.0101
     17 C         139.3393  140.3326  166.6074 C.1     1  UNL1        0.1016
     18 N         139.9047  139.9860  167.9529 N.1     1  UNL1       -0.1908
     19 C         144.3835  143.9368  162.4913 C.3     1  UNL1        0.0970
     20 C         144.9688  142.6089  162.8710 C.3     1  UNL1        0.1264
     21 C         143.4226  138.9847  160.6975 C.ar    1  UNL1        0.1593
     22 C         142.5839  137.9755  161.4241 C.ar    1  UNL1        0.1357
     23 N         142.2606  138.1744  162.8753 N.ar    1  UNL1       -0.2392
     24 C         142.7759  139.3824  163.5998 C.ar    1  UNL1        0.0975
     25 C         142.4526  139.5813  165.0510 C.ar    1  UNL1        0.0255
     26 C         142.9680  140.7894  165.7755 C.ar    1  UNL1        0.0623
     27 C         143.8068  141.7986  165.0488 C.ar    1  UNL1        0.2611
     28 O         144.3222  143.0067  165.7733 O.2     1  UNL1       -0.2670
     29 N         144.1301  141.5997  163.5977 N.ar    1  UNL1       -0.2926
     30 C         143.6147  140.3916  162.8732 C.ar    1  UNL1        0.0832
     31 C         143.9380  140.1927  161.4220 C.ar    1  UNL1        0.0573
     32 C         142.7019  138.2504  158.3118 C.3     1  UNL1        0.2525
     33 O         143.7459  138.7858  159.2463 O.3     1  UNL1       -0.4698
@<TRIPOS>BOND
     1    32    33    1
     2    33    21    1
     3    21    22   ar
     4    22    23   ar
     5    23    24   ar
     6    24    25   ar
     7    25    26   ar
     8    26    27   ar
     9    27    28    2
    10    27    29   ar
    11    29    20    1
    12    20    19    1
    13    19     1    1
    14     1     2    1
    15     2     3    1
    16     3     4    1
    17     4     7    1
    18     7     9    1
    19     9    10    1
    20    10    11   ar
    21    11    12   ar
    22    12    13   ar
    23    13    14    1
    24    13    15   ar
    25    15    17    1
    26    17    18    3
    27    15    16   ar
    28     4     5    1
    29     5     6    1
    30    29    30   ar
    31    30    31   ar
    32    31    21   ar
    33    30    24   ar
    34     6     1    1
    35    16    10   ar
    36     7     8    1
@<TRIPOS>MOLECULE
*****
 33 36 0 0 0
SMALL
GASTEIGER

@<TRIPOS>ATOM
      1 N         144.4975  140.2620  163.5010 N.3     1  UNL1       -0.2710
      2 C         144.0481  140.1313  162.0759 C.3     1  UNL1        0.0735
      3 C         142.9908  139.1316  161.7116 C.3     1  UNL1        0.0331
      4 C         142.3829  138.2626  162.7724 C.3     1  UNL1        0.0570
      5 C         142.8324  138.3934  164.1975 C.3     1  UNL1        0.0331
      6 C         143.8896  139.3930  164.5618 C.3     1  UNL1        0.0735
      7 N         141.3256  137.2629  162.4082 N.3     1  UNL1       -0.2947
      8 H         141.6928  136.3434  162.6533 H       1  UNL1        0.1235
      9 C         139.9590  137.3604  163.0189 C.3     1  UNL1        0.0972
     10 C         139.3484  138.7053  163.2801 C.ar    1  UNL1        0.0135
     11 C         138.8729  139.0583  164.6582 C.ar    1  UNL1        0.0955
     12 N         138.2623  140.4033  164.9194 N.ar    1  UNL1       -0.2477
     13 C         138.1272  141.3953  163.8023 C.ar    1  UNL1        0.0689
     14 C         137.5166  142.7403  164.0635 C.3     1  UNL1        0.0528
     15 C         138.6027  141.0423  162.4242 C.ar    1  UNL1        0.0817
     16 C         139.2133  139.6973  162.1631 C.ar    1  UNL1        0.0101
     17 C         138.4676  142.0342  161.3072 C.1     1  UNL1        0.1016
     18 N         138.3326  143.0262  160.1901 N.1     1  UNL1       -0.1908
     19 C         145.5548  141.2617  163.8652 C.3     1  UNL1        0.0970
     20 C         145.1623  142.6105  164.3913 C.3     1  UNL1        0.1264
     21 C         142.1290  142.0130  167.6612 C.ar    1  UNL1        0.1593
     22 C         140.7247  142.5087  167.4812 C.ar    1  UNL1        0.1357
     23 N         140.3316  143.2035  166.2112 N.ar    1  UNL1       -0.2392
     24 C         141.3427  143.4026  165.1213 C.ar    1  UNL1        0.0975
     25 C         140.9496  144.0974  163.8514 C.ar    1  UNL1        0.0255
     26 C         141.9606  144.2966  162.7615 C.ar    1  UNL1        0.0623
     27 C         143.3650  143.8009  162.9414 C.ar    1  UNL1        0.2611
     28 O         144.3760  144.0001  161.8515 O.2     1  UNL1       -0.2670
     29 N         143.7581  143.1061  164.2113 N.ar    1  UNL1       -0.2926
     30 C         142.7469  142.9070  165.3013 C.ar    1  UNL1        0.0832
     31 C         143.1400  142.2122  166.5712 C.ar    1  UNL1        0.0573
     32 C         142.5185  139.8198  168.9983 C.3     1  UNL1        0.2525
     33 O         142.5221  141.3182  168.9311 O.3     1  UNL1       -0.4698
@<TRIPOS>BOND
     1    32    33    1
     2    33    21    1
     3    21    22   ar
     4    22    23   ar
     5    23    24   ar
     6    24    25   ar
     7    25    26   ar
     8    26    27   ar
     9    27    28    2
    10    27    29   ar
    11    29    20    1
    12    20    19    1
    13    19     1    1
    14     1     2    1
    15     2     3    1
    16     3     4    1
    17     4     7    1
    18     7     9    1
    19     9    10    1
    20    10    11   ar
    21    11    12   ar
    22    12    13   ar
    23    13    14    1
    24    13    15   ar
    25    15    17    1
    26    17    18    3
    27    15    16   ar
    28     4     5    1
    29     5     6    1
    30    29    30   ar
    31    30    31   ar
    32    31    21   ar
    33    30    24   ar
    34     6     1    1
    35    16    10   ar
    36     7     8    1
@<TRIPOS>MOLECULE
*****
 33 36 0 0 0
SMALL
GASTEIGER

@<TRIPOS>ATOM
      1 N         142.7343  144.1792  163.4996 N.3     1  UNL1       -0.2710
      2 C         141.4909  144.4148  164.3049 C.3     1  UNL1        0.0735
      3 C         140.1428  144.2000  163.6833 C.3     1  UNL1        0.0331
      4 C         140.0381  143.7497  162.2564 C.3     1  UNL1        0.0570
      5 C         141.2814  143.5141  161.4511 C.3     1  UNL1        0.0331
      6 C         142.6295  143.7289  162.0727 C.3     1  UNL1        0.0735
      7 N         138.6899  143.5349  161.6347 N.3     1  UNL1       -0.2947
      8 H         138.8520  143.2857  160.6589 H       1  UNL1        0.1235
      9 C         137.7608  142.5004  162.1973 C.3     1  UNL1        0.0972
     10 C         138.3118  141.2231  162.7583 C.ar    1  UNL1        0.0135
     11 C         139.2142  140.3646  161.9224 C.ar    1  UNL1        0.0955
     12 N         139.7652  139.0872  162.4834 N.ar    1  UNL1       -0.2477
     13 C         139.4139  138.6684  163.8803 C.ar    1  UNL1        0.0689
     14 C         139.9650  137.3911  164.4413 C.3     1  UNL1        0.0528
     15 C         138.5116  139.5270  164.7161 C.ar    1  UNL1        0.0817
     16 C         137.9605  140.8043  164.1551 C.ar    1  UNL1        0.0101
     17 C         138.1602  139.1082  166.1130 C.1     1  UNL1        0.1016
     18 N         137.8088  138.6894  167.5099 N.1     1  UNL1       -0.1908
     19 C         144.0824  144.3939  164.1213 C.3     1  UNL1        0.0970
     20 C         144.6561  143.3598  165.0440 C.3     1  UNL1        0.1264
     21 C         141.6840  141.6423  167.9538 C.ar    1  UNL1        0.1593
     22 C         141.2575  140.2094  167.8323 C.ar    1  UNL1        0.1357
     23 N         141.8217  139.3490  166.7408 N.ar    1  UNL1       -0.2392
     24 C         142.8124  139.9214  165.7709 C.ar    1  UNL1        0.0975
     25 C         143.3766  139.0610  164.6794 C.ar    1  UNL1        0.0255
     26 C         144.3673  139.6334  163.7095 C.ar    1  UNL1        0.0623
     27 C         144.7938  141.0664  163.8310 C.ar    1  UNL1        0.2611
     28 O         145.7845  141.6389  162.8611 O.2     1  UNL1       -0.2670
     29 N         144.2296  141.9269  164.9225 N.ar    1  UNL1       -0.2926
     30 C         143.2389  141.3543  165.8924 C.ar    1  UNL1        0.0832
     31 C         142.6747  142.2148  166.9839 C.ar    1  UNL1        0.0573
     32 C         141.9743  142.8828  170.2181 C.3     1  UNL1        0.2525
     33 O         141.1198  142.5028  169.0453 O.3     1  UNL1       -0.4698
@<TRIPOS>BOND
     1    32    33    1
     2    33    21    1
     3    21    22   ar
     4    22    23   ar
     5    23    24   ar
     6    24    25   ar
     7    25    26   ar
     8    26    27   ar
     9    27    28    2
    10    27    29   ar
    11    29    20    1
    12    20    19    1
    13    19     1    1
    14     1     2    1
    15     2     3    1
    16     3     4    1
    17     4     7    1
    18     7     9    1
    19     9    10    1
    20    10    11   ar
    21    11    12   ar
    22    12    13   ar
    23    13    14    1
    24    13    15   ar
    25    15    17    1
    26    17    18    3
    27    15    16   ar
    28     4     5    1
    29     5     6    1
    30    29    30   ar
    31    30    31   ar
    32    31    21   ar
    33    30    24   ar
    34     6     1    1
    35    16    10   ar
    36     7     8    1
@<TRIPOS>MOLECULE
*****
 33 36 0 0 0
SMALL
GASTEIGER

@<TRIPOS>ATOM
      1 N         142.9268  143.3824  161.4209 N.3     1  UNL1       -0.2710
      2 C         143.2460  144.1754  162.6535 C.3     1  UNL1        0.0735
      3 C         142.1429  144.8314  163.4298 C.3     1  UNL1        0.0331
      4 C         140.7206  144.6944  162.9736 C.3     1  UNL1        0.0570
      5 C         140.4014  143.9013  161.7410 C.3     1  UNL1        0.0331
      6 C         141.5045  143.2453  160.9647 C.3     1  UNL1        0.0735
      7 N         139.6174  145.3504  163.7500 N.3     1  UNL1       -0.2947
      8 H         138.8011  145.3742  163.1388 H       1  UNL1        0.1235
      9 C         139.1652  144.7621  165.0536 C.3     1  UNL1        0.0972
     10 C         139.0964  143.2731  165.2208 C.ar    1  UNL1        0.0135
     11 C         138.0121  142.4913  164.5404 C.ar    1  UNL1        0.0955
     12 N         137.9433  141.0022  164.7076 N.ar    1  UNL1       -0.2477
     13 C         138.9588  140.2949  165.5553 C.ar    1  UNL1        0.0689
     14 C         138.8900  138.8059  165.7225 C.3     1  UNL1        0.0528
     15 C         140.0431  141.0768  166.2358 C.ar    1  UNL1        0.0817
     16 C         140.1119  142.5659  166.0685 C.ar    1  UNL1        0.0101
     17 C         141.0586  140.3696  167.0834 C.1     1  UNL1        0.1016
     18 N         142.0742  139.6623  167.9311 N.1     1  UNL1       -0.1908
     19 C         144.0301  142.7264  160.6446 C.3     1  UNL1        0.0970
     20 C         144.2086  141.2384  160.7066 C.3     1  UNL1        0.1264
     21 C         140.7299  138.4268  161.2000 C.ar    1  UNL1        0.1593
     22 C         140.5304  137.7009  162.4974 C.ar    1  UNL1        0.1357
     23 N         141.4905  137.9122  163.6303 N.ar    1  UNL1       -0.2392
     24 C         142.6501  138.8494  163.4659 C.ar    1  UNL1        0.0975
     25 C         143.6102  139.0606  164.5988 C.ar    1  UNL1        0.0255
     26 C         144.7697  139.9978  164.4344 C.ar    1  UNL1        0.0623
     27 C         144.9693  140.7238  163.1370 C.ar    1  UNL1        0.2611
     28 O         146.1288  141.6609  162.9725 O.2     1  UNL1       -0.2670
     29 N         144.0092  140.5125  162.0040 N.ar    1  UNL1       -0.2926
     30 C         142.8496  139.5752  162.1685 C.ar    1  UNL1        0.0832
     31 C         141.8895  139.3640  161.0355 C.ar    1  UNL1        0.0573
     32 C         139.1294  139.3947  159.3968 C.3     1  UNL1        0.2525
     33 O         139.7698  138.2155  160.0670 O.3     1  UNL1       -0.4698
@<TRIPOS>BOND
     1    32    33    1
     2    33    21    1
     3    21    22   ar
     4    22    23   ar
     5    23    24   ar
     6    24    25   ar
     7    25    26   ar
     8    26    27   ar
     9    27    28    2
    10    27    29   ar
    11    29    20    1
    12    20    19    1
    13    19     1    1
    14     1     2    1
    15     2     3    1
    16     3     4    1
    17     4     7    1
    18     7     9    1
    19     9    10    1
    20    10    11   ar
    21    11    12   ar
    22    12    13   ar
    23    13    14    1
    24    13    15   ar
    25    15    17    1
    26    17    18    3
    27    15    16   ar
    28     4     5    1
    29     5     6    1
    30    29    30   ar
    31    30    31   ar
    32    31    21   ar
    33    30    24   ar
    34     6     1    1
    35    16    10   ar
    36     7     8    1
@<TRIPOS>MOLECULE
*****
 33 36 0 0 0
SMALL
GASTEIGER

@<TRIPOS>ATOM
      1 N         142.5271  144.0207  160.7005 N.3     1  UNL1       -0.2710
      2 C         142.8347  144.3652  162.1276 C.3     1  UNL1        0.0735
      3 C         143.9529  143.6672  162.8434 C.3     1  UNL1        0.0331
      4 C         144.7636  142.6247  162.1319 C.3     1  UNL1        0.0570
      5 C         144.4560  142.2803  160.7048 C.3     1  UNL1        0.0331
      6 C         143.3377  142.9783  159.9891 C.3     1  UNL1        0.0735
      7 N         145.8819  141.9267  162.8477 N.3     1  UNL1       -0.2947
      8 H         146.4437  142.6516  163.2940 H       1  UNL1        0.1235
      9 C         145.5752  140.9055  163.9027 C.3     1  UNL1        0.0972
     10 C         144.3845  140.0058  163.7522 C.ar    1  UNL1        0.0135
     11 C         144.3448  138.9931  162.6464 C.ar    1  UNL1        0.0955
     12 N         143.1540  138.0934  162.4958 N.ar    1  UNL1       -0.2477
     13 C         142.0030  138.2065  163.4510 C.ar    1  UNL1        0.0689
     14 C         140.8123  137.3068  163.3004 C.3     1  UNL1        0.0528
     15 C         142.0427  139.2192  164.5568 C.ar    1  UNL1        0.0817
     16 C         143.2335  140.1189  164.7073 C.ar    1  UNL1        0.0101
     17 C         140.8917  139.3323  165.5120 C.1     1  UNL1        0.1016
     18 N         139.7407  139.4454  166.4672 N.1     1  UNL1       -0.1908
     19 C         141.4088  144.7187  159.9848 C.3     1  UNL1        0.0970
     20 C         140.0075  144.1940  160.0906 C.3     1  UNL1        0.1264
     21 C         138.7631  140.0201  161.2220 C.ar    1  UNL1        0.1593
     22 C         138.1608  139.7566  162.5702 C.ar    1  UNL1        0.1357
     23 N         137.9732  140.8844  163.5413 N.ar    1  UNL1       -0.2392
     24 C         138.3880  142.2756  163.1641 C.ar    1  UNL1        0.0975
     25 C         138.2004  143.4034  164.1352 C.ar    1  UNL1        0.0255
     26 C         138.6152  144.7947  163.7581 C.ar    1  UNL1        0.0623
     27 C         139.2176  145.0582  162.4099 C.ar    1  UNL1        0.2611
     28 O         139.6324  146.4495  162.0327 O.2     1  UNL1       -0.2670
     29 N         139.4052  143.9305  161.4388 N.ar    1  UNL1       -0.2926
     30 C         138.9904  142.5392  161.8160 C.ar    1  UNL1        0.0832
     31 C         139.1779  141.4114  160.8449 C.ar    1  UNL1        0.0573
     32 C         140.3247  138.5487  159.7569 C.3     1  UNL1        0.2525
     33 O         138.9507  138.8924  160.2509 O.3     1  UNL1       -0.4698
@<TRIPOS>BOND
     1    32    33    1
     2    33    21    1
     3    21    22   ar
     4    22    23   ar
     5    23    24   ar
     6    24    25   ar
     7    25    26   ar
     8    26    27   ar
     9    27    28    2
    10    27    29   ar
    11    29    20    1
    12    20    19    1
    13    19     1    1
    14     1     2    1
    15     2     3    1
    16     3     4    1
    17     4     7    1
    18     7     9    1
    19     9    10    1
    20    10    11   ar
    21    11    12   ar
    22    12    13   ar
    23    13    14    1
    24    13    15   ar
    25    15    17    1
    26    17    18    3
    27    15    16   ar
    28     4     5    1
    29     5     6    1
    30    29    30   ar
    31    30    31   ar
    32    31    21   ar
    33    30    24   ar
    34     6     1    1
    35    16    10   ar
    36     7     8    1
@<TRIPOS>MOLECULE
*****
 33 36 0 0 0
SMALL
GASTEIGER

@<TRIPOS>ATOM
      1 N         137.9775  140.1544  161.9808 N.3     1  UNL1       -0.2710
      2 C         137.5235  140.8871  163.2084 C.3     1  UNL1        0.0735
      3 C         137.6698  142.3777  163.2893 C.3     1  UNL1        0.0331
      4 C         138.2702  143.1357  162.1426 C.3     1  UNL1        0.0570
      5 C         138.7242  142.4030  160.9150 C.3     1  UNL1        0.0331
      6 C         138.5779  140.9124  160.8340 C.3     1  UNL1        0.0735
      7 N         138.4166  144.6264  162.2235 N.3     1  UNL1       -0.2947
      8 H         137.5048  144.9977  162.4901 H       1  UNL1        0.1235
      9 C         139.4210  145.2317  163.1587 C.3     1  UNL1        0.0972
     10 C         140.7379  144.5510  163.3878 C.ar    1  UNL1        0.0135
     11 C         141.8214  144.6467  162.3549 C.ar    1  UNL1        0.0955
     12 N         143.1382  143.9660  162.5840 N.ar    1  UNL1       -0.2477
     13 C         143.3716  143.1896  163.8461 C.ar    1  UNL1        0.0689
     14 C         144.6885  142.5090  164.0753 C.3     1  UNL1        0.0528
     15 C         142.2882  143.0940  164.8791 C.ar    1  UNL1        0.0817
     16 C         140.9712  143.7747  164.6499 C.ar    1  UNL1        0.0101
     17 C         142.5215  142.3176  166.1411 C.1     1  UNL1        0.1016
     18 N         142.7549  141.5413  167.4032 N.1     1  UNL1       -0.1908
     19 C         137.8311  138.6637  161.8999 C.3     1  UNL1        0.0970
     20 C         139.0444  137.7855  161.9813 C.3     1  UNL1        0.1264
     21 C         143.0726  138.6696  160.1807 C.ar    1  UNL1        0.1593
     22 C         144.2207  139.0567  161.0650 C.ar    1  UNL1        0.1357
     23 N         144.0261  139.1492  162.5494 N.ar    1  UNL1       -0.2392
     24 C         142.6834  138.8545  163.1496 C.ar    1  UNL1        0.0975
     25 C         142.4888  138.9469  164.6341 C.ar    1  UNL1        0.0255
     26 C         141.1461  138.6522  165.2343 C.ar    1  UNL1        0.0623
     27 C         139.9979  138.2651  164.3500 C.ar    1  UNL1        0.2611
     28 O         138.6552  137.9704  164.9502 O.2     1  UNL1       -0.2670
     29 N         140.1925  138.1726  162.8656 N.ar    1  UNL1       -0.2926
     30 C         141.5353  138.4674  162.2654 C.ar    1  UNL1        0.0832
     31 C         141.7299  138.3749  160.7809 C.ar    1  UNL1        0.0573
     32 C         142.5369  137.5307  157.9079 C.3     1  UNL1        0.2525
     33 O         143.2672  138.5772  158.6963 O.3     1  UNL1       -0.4698
@<TRIPOS>BOND
     1    32    33    1
     2    33    21    1
     3    21    22   ar
     4    22    23   ar
     5    23    24   ar
     6    24    25   ar
     7    25    26   ar
     8    26    27   ar
     9    27    28    2
    10    27    29   ar
    11    29    20    1
    12    20    19    1
    13    19     1    1
    14     1     2    1
    15     2     3    1
    16     3     4    1
    17     4     7    1
    18     7     9    1
    19     9    10    1
    20    10    11   ar
    21    11    12   ar
    22    12    13   ar
    23    13    14    1
    24    13    15   ar
    25    15    17    1
    26    17    18    3
    27    15    16   ar
    28     4     5    1
    29     5     6    1
    30    29    30   ar
    31    30    31   ar
    32    31    21   ar
    33    30    24   ar
    34     6     1    1
    35    16    10   ar
    36     7     8    1
