@<TRIPOS>MOLECULE
*****
 37 39 0 0 0
SMALL
GASTEIGER

@<TRIPOS>ATOM
      1 C         139.0302  142.5810  161.8310 C.2     1  UNL1        0.2485
      2 O         138.0468  143.7136  161.8352 O.2     1  UNL1       -0.2726
      3 N         140.0040  142.4375  160.6990 N.am    1  UNL1       -0.2823
      4 H         140.6495  141.6941  160.6962 H       1  UNL1        0.1549
      5 C         137.7249  138.0073  161.7168 C.3     1  UNL1        0.0949
      6 C         138.1115  139.4549  161.6482 C.2     1  UNL1        0.2269
      7 O         137.9922  140.2026  160.3534 O.2     1  UNL1       -0.2748
      8 N         138.6176  140.1550  162.8746 N.am    1  UNL1       -0.2655
      9 C         138.7902  139.5410  164.2322 C.3     1  UNL1        0.1206
     10 C         139.3191  140.5985  165.1553 C.ar    1  UNL1       -0.0030
     11 C         139.6802  140.5710  166.6109 C.ar    1  UNL1        0.0155
     12 C         140.1955  141.8109  167.2794 C.ar    1  UNL1        0.1054
     13 C         140.3498  143.0784  166.4922 C.ar    1  UNL1        0.0181
     14 C         139.9887  143.1059  165.0366 C.ar    1  UNL1       -0.0011
     15 C         139.4734  141.8660  164.3682 C.ar    1  UNL1        0.0022
     16 C         139.0398  141.5918  162.9586 C.3     1  UNL1        0.1750
     17 S         140.5566  141.7835  168.7350 S.O2    1  UNL1        0.0104
     18 C         140.9177  141.7559  170.1906 C.3     1  UNL1        0.1816
     19 O         140.3492  143.2669  168.8145 O.2     1  UNL1       -0.1686
     20 O         140.7640  140.3000  168.6555 O.2     1  UNL1       -0.1686
     21 C         139.9944  143.4267  159.5714 C.ar    1  UNL1        0.0503
     22 C         140.6680  144.7569  159.7349 C.ar    1  UNL1        0.0144
     23 C         140.6584  145.7460  158.6073 C.ar    1  UNL1       -0.0002
     24 C         139.9751  145.4049  157.3163 C.ar    1  UNL1        0.0182
     25 C         139.3015  144.0747  157.1529 C.ar    1  UNL1       -0.0002
     26 C         139.3111  143.0855  158.2805 C.ar    1  UNL1        0.0144
     27 C         139.9655  146.3940  156.1886 C.3     1  UNL1        0.2827
     28 O         139.2554  147.3844  157.0633 O.3     1  UNL1       -0.3692
     29 H         139.0965  148.2009  156.5643 H       1  UNL1        0.2112
     30 C         139.9558  147.3830  155.0609 C.3     1  UNL1        0.4311
     31 F         139.9462  148.3721  153.9332 F       1  UNL1       -0.1669
     32 F         138.4566  147.3411  155.0369 F       1  UNL1       -0.1669
     33 F         140.8338  147.4789  154.9937 F       1  UNL1       -0.1669
     34 C         140.6755  145.4036  155.3140 C.3     1  UNL1        0.4311
     35 F         141.3855  144.4132  154.4392 F       1  UNL1       -0.1669
     36 F         139.9901  145.2156  154.7854 F       1  UNL1       -0.1669
     37 F         142.0666  145.3573  155.8731 F       1  UNL1       -0.1669
@<TRIPOS>BOND
     1     5     6    1
     2     6     7    2
     3     6     8   am
     4     8     9    1
     5     9    10    1
     6    10    11   ar
     7    11    12   ar
     8    12    17    1
     9    17    18    1
    10    17    19    2
    11    17    20    2
    12    12    13   ar
    13    13    14   ar
    14    14    15   ar
    15    15    16    1
    16    16     1    1
    17     1     2    2
    18     1     3   am
    19     3    21    1
    20    21    22   ar
    21    22    23   ar
    22    23    24   ar
    23    24    27    1
    24    27    28    1
    25    27    30    1
    26    30    31    1
    27    30    32    1
    28    30    33    1
    29    27    34    1
    30    34    35    1
    31    34    36    1
    32    34    37    1
    33    24    25   ar
    34    25    26   ar
    35    16     8    1
    36    26    21   ar
    37    15    10   ar
    38     3     4    1
    39    28    29    1
@<TRIPOS>MOLECULE
*****
 37 39 0 0 0
SMALL
GASTEIGER

@<TRIPOS>ATOM
      1 C         143.0616  141.2512  158.9755 C.2     1  UNL1        0.2485
      2 O         143.7499  141.1604  160.3051 O.2     1  UNL1       -0.2726
      3 N         141.7216  141.9168  158.8686 N.am    1  UNL1       -0.2823
      4 H         141.2697  141.9764  157.9960 H       1  UNL1        0.1549
      5 C         141.6675  137.4912  156.4153 C.3     1  UNL1        0.0949
      6 C         142.0222  138.6596  157.2864 C.2     1  UNL1        0.2269
      7 O         141.1635  139.0024  158.4676 O.2     1  UNL1       -0.2748
      8 N         143.2355  139.4853  156.9764 N.am    1  UNL1       -0.2655
      9 C         144.1840  139.2648  155.8355 C.3     1  UNL1        0.1206
     10 C         145.2480  140.3197  155.9067 C.ar    1  UNL1       -0.0030
     11 C         146.4442  140.5985  155.0458 C.ar    1  UNL1        0.0155
     12 C         147.3495  141.7498  155.3697 C.ar    1  UNL1        0.1054
     13 C         147.0585  142.6223  156.5547 C.ar    1  UNL1        0.0181
     14 C         145.8623  142.3435  157.4156 C.ar    1  UNL1       -0.0011
     15 C         144.9571  141.1922  157.0917 C.ar    1  UNL1        0.0022
     16 C         143.7133  140.6765  157.7527 C.3     1  UNL1        0.1750
     17 S         148.5458  142.0286  154.5087 S.O2    1  UNL1        0.0104
     18 C         149.7419  142.3075  153.6477 C.3     1  UNL1        0.1816
     19 O         149.4493  141.7418  155.6711 O.2     1  UNL1       -0.1686
     20 O         147.6422  142.3154  153.3463 O.2     1  UNL1       -0.1686
     21 C         141.0699  142.4914  160.0914 C.ar    1  UNL1        0.0503
     22 C         141.0544  143.9760  160.3055 C.ar    1  UNL1        0.0144
     23 C         140.4028  144.5506  161.5283 C.ar    1  UNL1       -0.0002
     24 C         139.7667  143.6407  162.5369 C.ar    1  UNL1        0.0182
     25 C         139.7822  142.1562  162.3228 C.ar    1  UNL1       -0.0002
     26 C         140.4339  141.5815  161.1000 C.ar    1  UNL1        0.0144
     27 C         139.1151  144.2153  163.7597 C.3     1  UNL1        0.2827
     28 O         137.9725  144.7057  162.9205 O.3     1  UNL1       -0.3692
     29 H         137.3290  145.1617  163.4852 H       1  UNL1        0.2112
     30 C         138.4635  144.7899  164.9825 C.3     1  UNL1        0.4311
     31 F         137.8119  145.3644  166.2054 F       1  UNL1       -0.1669
     32 F         137.3441  143.8001  164.8511 F       1  UNL1       -0.1669
     33 F         139.0726  145.4113  165.1476 F       1  UNL1       -0.1669
     34 C         140.2576  143.7249  164.5989 C.3     1  UNL1        0.4311
     35 F         141.4001  143.2345  165.4381 F       1  UNL1       -0.1669
     36 F         139.8311  143.0464  164.9760 F       1  UNL1       -0.1669
     37 F         141.3763  144.6711  164.2775 F       1  UNL1       -0.1669
@<TRIPOS>BOND
     1     5     6    1
     2     6     7    2
     3     6     8   am
     4     8     9    1
     5     9    10    1
     6    10    11   ar
     7    11    12   ar
     8    12    17    1
     9    17    18    1
    10    17    19    2
    11    17    20    2
    12    12    13   ar
    13    13    14   ar
    14    14    15   ar
    15    15    16    1
    16    16     1    1
    17     1     2    2
    18     1     3   am
    19     3    21    1
    20    21    22   ar
    21    22    23   ar
    22    23    24   ar
    23    24    27    1
    24    27    28    1
    25    27    30    1
    26    30    31    1
    27    30    32    1
    28    30    33    1
    29    27    34    1
    30    34    35    1
    31    34    36    1
    32    34    37    1
    33    24    25   ar
    34    25    26   ar
    35    16     8    1
    36    26    21   ar
    37    15    10   ar
    38     3     4    1
    39    28    29    1
@<TRIPOS>MOLECULE
*****
 37 39 0 0 0
SMALL
GASTEIGER

@<TRIPOS>ATOM
      1 C         142.5546  137.9800  158.2006 C.2     1  UNL1        0.2485
      2 O         143.7127  138.8824  157.8937 O.2     1  UNL1       -0.2726
      3 N         141.9142  138.0165  159.5566 N.am    1  UNL1       -0.2823
      4 H         141.1540  137.4242  159.7582 H       1  UNL1        0.1549
      5 C         138.8561  138.6184  155.2766 C.3     1  UNL1        0.0949
      6 C         140.0011  138.5142  156.2399 C.2     1  UNL1        0.2269
      7 O         140.2842  139.6375  157.1927 O.2     1  UNL1       -0.2748
      8 N         140.8631  137.2866  156.2505 N.am    1  UNL1       -0.2655
      9 C         140.7027  136.0890  155.3617 C.3     1  UNL1        0.1206
     10 C         141.7772  135.1033  155.7135 C.ar    1  UNL1       -0.0030
     11 C         142.1113  133.7460  155.1695 C.ar    1  UNL1        0.0155
     12 C         143.2700  132.9771  155.7318 C.ar    1  UNL1        0.1054
     13 C         144.0945  133.5655  156.8381 C.ar    1  UNL1        0.0181
     14 C         143.7604  134.9228  157.3822 C.ar    1  UNL1       -0.0011
     15 C         142.6017  135.6917  156.8199 C.ar    1  UNL1        0.0022
     16 C         142.0367  137.0410  157.1517 C.3     1  UNL1        0.1750
     17 S         143.6043  131.6197  155.1878 S.O2    1  UNL1        0.0104
     18 C         143.9385  130.2624  154.6438 C.3     1  UNL1        0.1816
     19 O         142.2060  131.4863  154.6615 O.2     1  UNL1       -0.1686
     20 O         145.0025  131.7531  155.7141 O.2     1  UNL1       -0.1686
     21 C         142.4320  138.9555  160.6056 C.ar    1  UNL1        0.0503
     22 C         141.7922  140.2994  160.7909 C.ar    1  UNL1        0.0144
     23 C         142.3100  141.2384  161.8398 C.ar    1  UNL1       -0.0002
     24 C         143.4677  140.8333  162.7033 C.ar    1  UNL1        0.0182
     25 C         144.1075  139.4893  162.5180 C.ar    1  UNL1       -0.0002
     26 C         143.5896  138.5504  161.4691 C.ar    1  UNL1        0.0144
     27 C         143.9856  141.7722  163.7523 C.3     1  UNL1        0.2827
     28 O         143.5634  140.8096  164.8225 O.3     1  UNL1       -0.3692
     29 H         143.7882  141.1746  165.6926 H       1  UNL1        0.2112
     30 C         144.5035  142.7112  164.8012 C.3     1  UNL1        0.4311
     31 F         145.0214  143.6501  165.8501 F       1  UNL1       -0.1669
     32 F         143.0993  142.9761  165.2574 F       1  UNL1       -0.1669
     33 F         145.3637  142.6236  164.6093 F       1  UNL1       -0.1669
     34 C         144.4077  142.7348  162.6821 C.3     1  UNL1        0.4311
     35 F         144.8298  143.6975  161.6120 F       1  UNL1       -0.1669
     36 F         143.7911  143.3504  162.8413 F       1  UNL1       -0.1669
     37 F         145.5810  142.0633  162.0322 F       1  UNL1       -0.1669
@<TRIPOS>BOND
     1     5     6    1
     2     6     7    2
     3     6     8   am
     4     8     9    1
     5     9    10    1
     6    10    11   ar
     7    11    12   ar
     8    12    17    1
     9    17    18    1
    10    17    19    2
    11    17    20    2
    12    12    13   ar
    13    13    14   ar
    14    14    15   ar
    15    15    16    1
    16    16     1    1
    17     1     2    2
    18     1     3   am
    19     3    21    1
    20    21    22   ar
    21    22    23   ar
    22    23    24   ar
    23    24    27    1
    24    27    28    1
    25    27    30    1
    26    30    31    1
    27    30    32    1
    28    30    33    1
    29    27    34    1
    30    34    35    1
    31    34    36    1
    32    34    37    1
    33    24    25   ar
    34    25    26   ar
    35    16     8    1
    36    26    21   ar
    37    15    10   ar
    38     3     4    1
    39    28    29    1
@<TRIPOS>MOLECULE
*****
 37 39 0 0 0
SMALL
GASTEIGER

@<TRIPOS>ATOM
      1 C         141.6223  139.0578  158.6362 C.2     1  UNL1        0.2485
      2 O         142.3501  138.1199  159.5529 O.2     1  UNL1       -0.2726
      3 N         140.4347  139.8252  159.1370 N.am    1  UNL1       -0.2823
      4 H         139.9570  140.4408  158.5353 H       1  UNL1        0.1549
      5 C         139.5015  137.5056  154.6702 C.3     1  UNL1        0.0949
      6 C         140.0893  137.9509  155.9764 C.2     1  UNL1        0.2269
      7 O         139.3892  137.6276  157.2629 O.2     1  UNL1       -0.2748
      8 N         141.3773  138.7195  155.9960 N.am    1  UNL1       -0.2655
      9 C         142.1868  139.1143  154.7965 C.3     1  UNL1        0.1206
     10 C         143.3917  139.8670  155.2777 C.ar    1  UNL1       -0.0030
     11 C         144.5395  140.4974  154.5462 C.ar    1  UNL1        0.0155
     12 C         145.6225  141.1983  155.3116 C.ar    1  UNL1        0.1054
     13 C         145.5577  141.2687  156.8085 C.ar    1  UNL1        0.0181
     14 C         144.4099  140.6383  157.5400 C.ar    1  UNL1       -0.0011
     15 C         143.3269  139.9375  156.7746 C.ar    1  UNL1        0.0022
     16 C         142.0819  139.2283  157.2185 C.3     1  UNL1        0.1750
     17 S         146.7704  141.8287  154.5801 S.O2    1  UNL1        0.0104
     18 C         147.9182  142.4591  153.8486 C.3     1  UNL1        0.1816
     19 O         147.1725  142.5497  155.8324 O.2     1  UNL1       -0.1686
     20 O         146.3683  141.1076  153.3278 O.2     1  UNL1       -0.1686
     21 C         139.9751  139.6548  160.5547 C.ar    1  UNL1        0.0503
     22 C         138.7757  138.8064  160.8573 C.ar    1  UNL1        0.0144
     23 C         138.3161  138.6359  162.2750 C.ar    1  UNL1       -0.0002
     24 C         139.0559  139.3138  163.3899 C.ar    1  UNL1        0.0182
     25 C         140.2553  140.1622  163.0872 C.ar    1  UNL1       -0.0002
     26 C         140.7149  140.3327  161.6695 C.ar    1  UNL1        0.0144
     27 C         138.5963  139.1433  164.8076 C.3     1  UNL1        0.2827
     28 O         137.6822  140.3226  164.6531 O.3     1  UNL1       -0.3692
     29 H         137.2051  140.4728  165.4842 H       1  UNL1        0.2112
     30 C         138.1368  138.9728  166.2252 C.3     1  UNL1        0.4311
     31 F         137.6773  138.8023  167.6429 F       1  UNL1       -0.1669
     32 F         138.8124  140.2589  166.5989 F       1  UNL1       -0.1669
     33 F         137.7078  138.2068  166.1084 F       1  UNL1       -0.1669
     34 C         139.5104  137.9641  164.9620 C.3     1  UNL1        0.4311
     35 F         140.4245  136.7848  165.1164 F       1  UNL1       -0.1669
     36 F         139.0083  137.3803  164.5243 F       1  UNL1       -0.1669
     37 F         140.6718  138.5047  165.7424 F       1  UNL1       -0.1669
@<TRIPOS>BOND
     1     5     6    1
     2     6     7    2
     3     6     8   am
     4     8     9    1
     5     9    10    1
     6    10    11   ar
     7    11    12   ar
     8    12    17    1
     9    17    18    1
    10    17    19    2
    11    17    20    2
    12    12    13   ar
    13    13    14   ar
    14    14    15   ar
    15    15    16    1
    16    16     1    1
    17     1     2    2
    18     1     3   am
    19     3    21    1
    20    21    22   ar
    21    22    23   ar
    22    23    24   ar
    23    24    27    1
    24    27    28    1
    25    27    30    1
    26    30    31    1
    27    30    32    1
    28    30    33    1
    29    27    34    1
    30    34    35    1
    31    34    36    1
    32    34    37    1
    33    24    25   ar
    34    25    26   ar
    35    16     8    1
    36    26    21   ar
    37    15    10   ar
    38     3     4    1
    39    28    29    1
@<TRIPOS>MOLECULE
*****
 37 39 0 0 0
SMALL
GASTEIGER

@<TRIPOS>ATOM
      1 C         142.5421  138.1356  157.3234 C.2     1  UNL1        0.2485
      2 O         141.4017  138.2558  158.2901 O.2     1  UNL1       -0.2726
      3 N         143.7143  139.0660  157.4268 N.am    1  UNL1       -0.2823
      4 H         144.4629  138.9871  156.7923 H       1  UNL1        0.1549
      5 C         141.1581  138.6164  152.7969 C.3     1  UNL1        0.0949
      6 C         141.5718  138.5691  154.2379 C.2     1  UNL1        0.2269
      7 O         141.4927  139.8066  155.0819 O.2     1  UNL1       -0.2748
      8 N         142.0646  137.2843  154.8349 N.am    1  UNL1       -0.2655
      9 C         142.1980  135.9732  154.1185 C.3     1  UNL1        0.1206
     10 C         142.7264  134.9636  155.0940 C.ar    1  UNL1       -0.0030
     11 C         143.0566  133.5074  154.9514 C.ar    1  UNL1        0.0155
     12 C         143.5800  132.7384  156.1280 C.ar    1  UNL1        0.1054
     13 C         143.7732  133.4255  157.4473 C.ar    1  UNL1        0.0181
     14 C         143.4431  134.8817  157.5899 C.ar    1  UNL1       -0.0011
     15 C         142.9197  135.6508  156.4133 C.ar    1  UNL1        0.0022
     16 C         142.5106  137.0850  156.2531 C.3     1  UNL1        0.1750
     17 S         143.9102  131.2821  155.9855 S.O2    1  UNL1        0.0104
     18 C         144.2404  129.8258  155.8429 C.3     1  UNL1        0.1816
     19 O         145.3696  131.5992  156.1252 O.2     1  UNL1       -0.1686
     20 O         142.4508  130.9649  155.8457 O.2     1  UNL1       -0.1686
     21 C         143.7457  140.1165  158.4970 C.ar    1  UNL1        0.0503
     22 C         143.8964  141.5618  158.1251 C.ar    1  UNL1        0.0144
     23 C         143.9279  142.6124  159.1953 C.ar    1  UNL1       -0.0002
     24 C         143.8087  142.2175  160.6375 C.ar    1  UNL1        0.0182
     25 C         143.6581  140.7722  161.0094 C.ar    1  UNL1       -0.0002
     26 C         143.6266  139.7217  159.9392 C.ar    1  UNL1        0.0144
     27 C         143.8402  143.2680  161.7078 C.3     1  UNL1        0.2827
     28 O         142.7710  144.0344  160.9871 O.3     1  UNL1       -0.3692
     29 H         142.5597  144.8401  161.4844 H       1  UNL1        0.2112
     30 C         143.8717  144.3184  162.7781 C.3     1  UNL1        0.4311
     31 F         143.9033  145.3688  163.8485 F       1  UNL1       -0.1669
     32 F         142.4958  143.9128  163.2167 F       1  UNL1       -0.1669
     33 F         144.6804  144.6318  162.5982 F       1  UNL1       -0.1669
     34 C         144.9094  142.5016  162.4284 C.3     1  UNL1        0.4311
     35 F         145.9787  141.7351  163.1490 F       1  UNL1       -0.1669
     36 F         145.5377  142.5850  161.8097 F       1  UNL1       -0.1669
     37 F         144.2555  142.0866  163.7130 F       1  UNL1       -0.1669
@<TRIPOS>BOND
     1     5     6    1
     2     6     7    2
     3     6     8   am
     4     8     9    1
     5     9    10    1
     6    10    11   ar
     7    11    12   ar
     8    12    17    1
     9    17    18    1
    10    17    19    2
    11    17    20    2
    12    12    13   ar
    13    13    14   ar
    14    14    15   ar
    15    15    16    1
    16    16     1    1
    17     1     2    2
    18     1     3   am
    19     3    21    1
    20    21    22   ar
    21    22    23   ar
    22    23    24   ar
    23    24    27    1
    24    27    28    1
    25    27    30    1
    26    30    31    1
    27    30    32    1
    28    30    33    1
    29    27    34    1
    30    34    35    1
    31    34    36    1
    32    34    37    1
    33    24    25   ar
    34    25    26   ar
    35    16     8    1
    36    26    21   ar
    37    15    10   ar
    38     3     4    1
    39    28    29    1
@<TRIPOS>MOLECULE
*****
 37 39 0 0 0
SMALL
GASTEIGER

@<TRIPOS>ATOM
      1 C         141.4030  142.7399  162.7104 C.2     1  UNL1        0.2485
      2 O         140.7264  141.4187  162.9259 O.2     1  UNL1       -0.2726
      3 N         141.8782  143.5398  163.8870 N.am    1  UNL1       -0.2823
      4 H         142.3223  144.4070  163.7457 H       1  UNL1        0.1549
      5 C         139.5366  146.6570  160.7588 C.3     1  UNL1        0.0949
      6 C         140.0724  145.4467  161.4647 C.2     1  UNL1        0.2269
      7 O         139.6877  145.1778  162.8893 O.2     1  UNL1       -0.2748
      8 N         140.9929  144.5055  160.7458 N.am    1  UNL1       -0.2655
      9 C         141.4633  144.6431  159.3282 C.3     1  UNL1        0.1206
     10 C         142.3657  143.4839  159.0246 C.ar    1  UNL1       -0.0030
     11 C         143.1192  143.0958  157.7871 C.ar    1  UNL1        0.0155
     12 C         143.9599  141.8536  157.7796 C.ar    1  UNL1        0.1054
     13 C         144.0472  140.9996  159.0097 C.ar    1  UNL1        0.0181
     14 C         143.2937  141.3877  160.2472 C.ar    1  UNL1       -0.0011
     15 C         142.4529  142.6299  160.2547 C.ar    1  UNL1        0.0022
     16 C         141.6045  143.2613  161.3184 C.3     1  UNL1        0.1750
     17 S         144.7135  141.4654  156.5420 S.O2    1  UNL1        0.0104
     18 C         145.4670  141.0773  155.3045 C.3     1  UNL1        0.1816
     19 O         145.0616  140.1472  157.1674 O.2     1  UNL1       -0.1686
     20 O         144.3654  142.7836  155.9166 O.2     1  UNL1       -0.1686
     21 C         141.6768  143.0185  165.2790 C.ar    1  UNL1        0.0503
     22 C         140.3221  143.0922  165.9188 C.ar    1  UNL1        0.0144
     23 C         140.1206  142.5708  167.3108 C.ar    1  UNL1       -0.0002
     24 C         141.2739  141.9758  168.0629 C.ar    1  UNL1        0.0182
     25 C         142.6287  141.9021  167.4231 C.ar    1  UNL1       -0.0002
     26 C         142.8301  142.4234  166.0312 C.ar    1  UNL1        0.0144
     27 C         141.0726  141.4543  169.4549 C.3     1  UNL1        0.2827
     28 O         141.5913  140.1133  169.0277 O.3     1  UNL1       -0.3692
     29 H         141.5803  139.5064  169.7843 H       1  UNL1        0.2112
     30 C         140.8712  140.9330  170.8469 C.3     1  UNL1        0.4311
     31 F         140.6698  140.4117  172.2389 F       1  UNL1       -0.1669
     32 F         139.7678  140.0442  170.3544 F       1  UNL1       -0.1669
     33 F         141.5034  141.4164  171.2358 F       1  UNL1       -0.1669
     34 C         140.5539  142.7954  169.8821 C.3     1  UNL1        0.4311
     35 F         140.0352  144.1365  170.3093 F       1  UNL1       -0.1669
     36 F         139.7033  142.5618  169.9618 F       1  UNL1       -0.1669
     37 F         141.7748  143.6666  169.9044 F       1  UNL1       -0.1669
@<TRIPOS>BOND
     1     5     6    1
     2     6     7    2
     3     6     8   am
     4     8     9    1
     5     9    10    1
     6    10    11   ar
     7    11    12   ar
     8    12    17    1
     9    17    18    1
    10    17    19    2
    11    17    20    2
    12    12    13   ar
    13    13    14   ar
    14    14    15   ar
    15    15    16    1
    16    16     1    1
    17     1     2    2
    18     1     3   am
    19     3    21    1
    20    21    22   ar
    21    22    23   ar
    22    23    24   ar
    23    24    27    1
    24    27    28    1
    25    27    30    1
    26    30    31    1
    27    30    32    1
    28    30    33    1
    29    27    34    1
    30    34    35    1
    31    34    36    1
    32    34    37    1
    33    24    25   ar
    34    25    26   ar
    35    16     8    1
    36    26    21   ar
    37    15    10   ar
    38     3     4    1
    39    28    29    1
@<TRIPOS>MOLECULE
*****
 37 39 0 0 0
SMALL
GASTEIGER

@<TRIPOS>ATOM
      1 C         140.4506  141.4010  161.2888 C.2     1  UNL1        0.2485
      2 O         141.7740  141.6740  161.9398 O.2     1  UNL1       -0.2726
      3 N         139.2857  140.9485  162.1188 N.am    1  UNL1       -0.2823
      4 H         138.4171  140.7692  161.6916 H       1  UNL1        0.1549
      5 C         139.8964  138.0276  157.9799 C.3     1  UNL1        0.0949
      6 C         140.0754  139.0127  159.0967 C.2     1  UNL1        0.2269
      7 O         140.2104  138.5281  160.5098 O.2     1  UNL1       -0.2748
      8 N         140.1193  140.4825  158.8005 N.am    1  UNL1       -0.2655
      9 C         139.9985  141.1127  157.4447 C.3     1  UNL1        0.1206
     10 C         140.0962  142.5999  157.6143 C.ar    1  UNL1       -0.0030
     11 C         140.0436  143.7282  156.6274 C.ar    1  UNL1        0.0155
     12 C         140.1723  145.1456  157.1012 C.ar    1  UNL1        0.1054
     13 C         140.3536  145.4346  158.5619 C.ar    1  UNL1        0.0181
     14 C         140.4062  144.3062  159.5488 C.ar    1  UNL1       -0.0011
     15 C         140.2775  142.8889  159.0750 C.ar    1  UNL1        0.0022
     16 C         140.2917  141.5803  159.8081 C.3     1  UNL1        0.1750
     17 S         140.1197  146.2740  156.1143 S.O2    1  UNL1        0.0104
     18 C         140.0671  147.4025  155.1275 C.3     1  UNL1        0.1816
     19 O         140.8690  145.4386  155.1190 O.2     1  UNL1       -0.1686
     20 O         139.3705  147.1095  157.1096 O.2     1  UNL1       -0.1686
     21 C         139.4446  140.7692  163.5995 C.ar    1  UNL1        0.0503
     22 C         139.6984  139.4039  164.1667 C.ar    1  UNL1        0.0144
     23 C         139.8572  139.2246  165.6475 C.ar    1  UNL1       -0.0002
     24 C         139.7622  140.4105  166.5609 C.ar    1  UNL1        0.0182
     25 C         139.5083  141.7758  165.9937 C.ar    1  UNL1       -0.0002
     26 C         139.3495  141.9551  164.5130 C.ar    1  UNL1        0.0144
     27 C         139.9210  140.2313  168.0417 C.3     1  UNL1        0.2827
     28 O         138.7044  139.3541  168.0661 O.3     1  UNL1       -0.3692
     29 H         138.5391  139.0558  168.9742 H       1  UNL1        0.2112
     30 C         140.0799  140.0521  169.5225 C.3     1  UNL1        0.4311
     31 F         140.2387  139.8729  171.0033 F       1  UNL1       -0.1669
     32 F         138.8020  140.8038  169.7506 F       1  UNL1       -0.1669
     33 F         140.8402  139.5987  169.4955 F       1  UNL1       -0.1669
     34 C         141.1375  141.1085  168.0173 C.3     1  UNL1        0.4311
     35 F         142.3541  141.9856  167.9929 F       1  UNL1       -0.1669
     36 F         141.6698  140.5430  167.5914 F       1  UNL1       -0.1669
     37 F         140.6957  142.3614  168.7137 F       1  UNL1       -0.1669
@<TRIPOS>BOND
     1     5     6    1
     2     6     7    2
     3     6     8   am
     4     8     9    1
     5     9    10    1
     6    10    11   ar
     7    11    12   ar
     8    12    17    1
     9    17    18    1
    10    17    19    2
    11    17    20    2
    12    12    13   ar
    13    13    14   ar
    14    14    15   ar
    15    15    16    1
    16    16     1    1
    17     1     2    2
    18     1     3   am
    19     3    21    1
    20    21    22   ar
    21    22    23   ar
    22    23    24   ar
    23    24    27    1
    24    27    28    1
    25    27    30    1
    26    30    31    1
    27    30    32    1
    28    30    33    1
    29    27    34    1
    30    34    35    1
    31    34    36    1
    32    34    37    1
    33    24    25   ar
    34    25    26   ar
    35    16     8    1
    36    26    21   ar
    37    15    10   ar
    38     3     4    1
    39    28    29    1
@<TRIPOS>MOLECULE
*****
 37 39 0 0 0
SMALL
GASTEIGER

@<TRIPOS>ATOM
      1 C         141.9717  142.3617  161.9462 C.2     1  UNL1        0.2485
      2 O         143.0277  143.2744  162.4953 O.2     1  UNL1       -0.2726
      3 N         141.1011  141.5745  162.8804 N.am    1  UNL1       -0.2823
      4 H         140.4080  140.9754  162.5200 H       1  UNL1        0.1549
      5 C         142.8984  138.5925  159.1947 C.3     1  UNL1        0.0949
      6 C         142.6402  139.7229  160.1463 C.2     1  UNL1        0.2269
      7 O         142.9286  139.5531  161.6084 O.2     1  UNL1       -0.2748
      8 N         142.0935  141.0231  159.6357 N.am    1  UNL1       -0.2655
      9 C         141.7580  141.3386  158.2082 C.3     1  UNL1        0.1206
     10 C         141.2435  142.7466  158.1532 C.ar    1  UNL1       -0.0030
     11 C         140.7613  143.5952  157.0143 C.ar    1  UNL1        0.0155
     12 C         140.2966  144.9985  157.2689 C.ar    1  UNL1        0.1054
     13 C         140.3140  145.5530  158.6625 C.ar    1  UNL1        0.0181
     14 C         140.7962  144.7044  159.8015 C.ar    1  UNL1       -0.0011
     15 C         141.2609  143.3011  159.5468 C.ar    1  UNL1        0.0022
     16 C         141.7862  142.2360  160.4630 C.3     1  UNL1        0.1750
     17 S         139.8144  145.8472  156.1299 S.O2    1  UNL1        0.0104
     18 C         139.3323  146.6958  154.9910 C.3     1  UNL1        0.1816
     19 O         139.5531  146.9764  157.0820 O.2     1  UNL1       -0.1686
     20 O         140.0757  144.7179  155.1779 O.2     1  UNL1       -0.1686
     21 C         141.2866  141.7002  164.3635 C.ar    1  UNL1        0.0503
     22 C         142.3781  140.9342  165.0505 C.ar    1  UNL1        0.0144
     23 C         142.5636  141.0599  166.5336 C.ar    1  UNL1       -0.0002
     24 C         141.6575  141.9516  167.3298 C.ar    1  UNL1        0.0182
     25 C         140.5660  142.7175  166.6429 C.ar    1  UNL1       -0.0002
     26 C         140.3805  142.5918  165.1597 C.ar    1  UNL1        0.0144
     27 C         141.8429  142.0773  168.8130 C.3     1  UNL1        0.2827
     28 O         143.2033  142.6699  168.5928 O.3     1  UNL1       -0.3692
     29 H         143.6095  142.8742  169.4496 H       1  UNL1        0.2112
     30 C         142.0283  142.2030  170.2962 C.3     1  UNL1        0.4311
     31 F         142.2136  142.3288  171.7794 F       1  UNL1       -0.1669
     32 F         141.9660  143.6970  170.1773 F       1  UNL1       -0.1669
     33 F         142.0781  141.3365  170.4727 F       1  UNL1       -0.1669
     34 C         140.4826  141.4848  169.0332 C.3     1  UNL1        0.4311
     35 F         139.1223  140.8923  169.2534 F       1  UNL1       -0.1669
     36 F         140.0844  142.2273  169.3064 F       1  UNL1       -0.1669
     37 F         140.6506  140.0416  168.6605 F       1  UNL1       -0.1669
@<TRIPOS>BOND
     1     5     6    1
     2     6     7    2
     3     6     8   am
     4     8     9    1
     5     9    10    1
     6    10    11   ar
     7    11    12   ar
     8    12    17    1
     9    17    18    1
    10    17    19    2
    11    17    20    2
    12    12    13   ar
    13    13    14   ar
    14    14    15   ar
    15    15    16    1
    16    16     1    1
    17     1     2    2
    18     1     3   am
    19     3    21    1
    20    21    22   ar
    21    22    23   ar
    22    23    24   ar
    23    24    27    1
    24    27    28    1
    25    27    30    1
    26    30    31    1
    27    30    32    1
    28    30    33    1
    29    27    34    1
    30    34    35    1
    31    34    36    1
    32    34    37    1
    33    24    25   ar
    34    25    26   ar
    35    16     8    1
    36    26    21   ar
    37    15    10   ar
    38     3     4    1
    39    28    29    1
@<TRIPOS>MOLECULE
*****
 37 39 0 0 0
SMALL
GASTEIGER

@<TRIPOS>ATOM
      1 C         142.3867  140.8089  158.4408 C.2     1  UNL1        0.2485
      2 O         141.0968  141.4903  158.0920 O.2     1  UNL1       -0.2726
      3 N         142.9199  140.8841  159.8409 N.am    1  UNL1       -0.2823
      4 H         143.7665  140.4368  160.0699 H       1  UNL1        0.1549
      5 C         146.4369  142.0644  156.2831 C.3     1  UNL1        0.0949
      6 C         145.1657  141.7604  157.0191 C.2     1  UNL1        0.2269
      7 O         144.6396  142.7273  158.0381 O.2     1  UNL1       -0.2748
      8 N         144.4208  140.4896  156.7362 N.am    1  UNL1       -0.2655
      9 C         144.8225  139.4330  155.7502 C.3     1  UNL1        0.1206
     10 C         143.7933  138.3426  155.7943 C.ar    1  UNL1       -0.0030
     11 C         143.6671  137.0506  155.0427 C.ar    1  UNL1        0.0155
     12 C         142.5031  136.1414  155.3043 C.ar    1  UNL1        0.1054
     13 C         141.4654  136.5242  156.3176 C.ar    1  UNL1        0.0181
     14 C         141.5917  137.8161  157.0692 C.ar    1  UNL1       -0.0011
     15 C         142.7556  138.7253  156.8075 C.ar    1  UNL1        0.0022
     16 C         143.1434  140.0522  157.3897 C.3     1  UNL1        0.1750
     17 S         142.3768  134.8494  154.5527 S.O2    1  UNL1        0.0104
     18 C         142.2505  133.5576  153.8010 C.3     1  UNL1        0.1816
     19 O         142.4977  134.0888  155.8398 O.2     1  UNL1       -0.1686
     20 O         142.2560  135.6101  153.2655 O.2     1  UNL1       -0.1686
     21 C         142.1632  141.6408  160.8920 C.ar    1  UNL1        0.0503
     22 C         141.2621  140.9079  161.8411 C.ar    1  UNL1        0.0144
     23 C         140.5053  141.6646  162.8922 C.ar    1  UNL1       -0.0002
     24 C         140.6497  143.1541  162.9941 C.ar    1  UNL1        0.0182
     25 C         141.5509  143.8869  162.0449 C.ar    1  UNL1       -0.0002
     26 C         142.3076  143.1303  160.9938 C.ar    1  UNL1        0.0144
     27 C         139.8930  143.9109  164.0452 C.3     1  UNL1        0.2827
     28 O         141.1816  144.2291  164.7439 O.3     1  UNL1       -0.3692
     29 H         140.9980  144.7591  165.5353 H       1  UNL1        0.2112
     30 C         139.1362  144.6676  165.0962 C.3     1  UNL1        0.4311
     31 F         138.3794  145.4243  166.1472 F       1  UNL1       -0.1669
     32 F         139.5543  143.6582  166.1240 F       1  UNL1       -0.1669
     33 F         138.8367  145.3137  164.5695 F       1  UNL1       -0.1669
     34 C         138.6044  143.5926  163.3465 C.3     1  UNL1        0.4311
     35 F         137.3158  143.2744  162.6477 F       1  UNL1       -0.1669
     36 F         138.7440  144.0933  162.6292 F       1  UNL1       -0.1669
     37 F         137.9080  142.6488  164.2814 F       1  UNL1       -0.1669
@<TRIPOS>BOND
     1     5     6    1
     2     6     7    2
     3     6     8   am
     4     8     9    1
     5     9    10    1
     6    10    11   ar
     7    11    12   ar
     8    12    17    1
     9    17    18    1
    10    17    19    2
    11    17    20    2
    12    12    13   ar
    13    13    14   ar
    14    14    15   ar
    15    15    16    1
    16    16     1    1
    17     1     2    2
    18     1     3   am
    19     3    21    1
    20    21    22   ar
    21    22    23   ar
    22    23    24   ar
    23    24    27    1
    24    27    28    1
    25    27    30    1
    26    30    31    1
    27    30    32    1
    28    30    33    1
    29    27    34    1
    30    34    35    1
    31    34    36    1
    32    34    37    1
    33    24    25   ar
    34    25    26   ar
    35    16     8    1
    36    26    21   ar
    37    15    10   ar
    38     3     4    1
    39    28    29    1
