@<TRIPOS>MOLECULE
*****
 31 35 0 0 0
SMALL
GASTEIGER

@<TRIPOS>ATOM
      1 C         142.3085  145.4797  163.7712 C.3     1  UNL1        0.0294
      2 C         141.4999  145.3346  162.5162 C.3     1  UNL1        0.0666
      3 S         140.2609  144.4891  162.5158 S.3     1  UNL1       -0.0756
      4 C         140.0091  140.7821  163.6385 C.ar    1  UNL1        0.1740
      5 N         141.0284  140.6844  162.5424 N.ar    1  UNL1       -0.1277
      6 N         141.2468  142.0612  161.9884 N.ar    1  UNL1       -0.1221
      7 C         140.3624  143.0097  162.7422 C.ar    1  UNL1        0.1932
      8 N         139.5975  142.2193  163.7620 N.ar    1  UNL1       -0.2880
      9 C         138.5968  142.7694  164.7346 C.3     1  UNL1        0.1340
     10 C         137.3033  137.9965  167.2162 C.3     1  UNL1        0.0594
     11 C         138.2485  138.3623  166.1104 C.ar    1  UNL1        0.0883
     12 N         139.1450  137.4163  165.3678 N.ar    1  UNL1       -0.2469
     13 C         139.9137  138.2077  164.3515 C.ar    1  UNL1        0.0685
     14 C         140.9260  137.6602  163.3896 C.3     1  UNL1        0.0527
     15 C         139.4922  139.6427  164.4659 C.ar    1  UNL1        0.0799
     16 S         138.4630  139.7383  165.5530 S.2     1  UNL1       -0.0680
     17 C         143.6854  144.8897  163.8488 C.3     1  UNL1        0.0730
     18 N         143.8587  143.4151  164.0623 N.3     1  UNL1       -0.2724
     19 C         144.7552  142.5091  163.2715 C.3     1  UNL1        0.0725
     20 C         144.6164  141.1217  163.8246 C.3     1  UNL1        0.0227
     21 C         143.6340  141.1703  164.9572 C.3     1  UNL1        0.0350
     22 C         144.1023  139.7529  164.8103 C.3     1  UNL1        0.0101
     23 C         143.4094  138.9255  165.8520 C.3     1  UNL1        0.0264
     24 C         142.5129  139.8316  166.6427 C.ar    1  UNL1       -0.0260
     25 C         141.5880  139.5725  167.7949 C.ar    1  UNL1       -0.0023
     26 C         140.8020  140.7009  168.3940 C.ar    1  UNL1        0.0293
     27 C         140.9408  142.0882  167.8410 C.ar    1  UNL1        0.1398
     28 F         140.1547  143.2167  168.4402 F       1  UNL1       -0.2042
     29 C         141.8657  142.3473  166.6888 C.ar    1  UNL1        0.0251
     30 C         142.6517  141.2189  166.0897 C.ar    1  UNL1       -0.0232
     31 C         143.1657  142.5878  165.1041 C.3     1  UNL1        0.0761
@<TRIPOS>BOND
     1    10    11    1
     2    11    12   ar
     3    12    13   ar
     4    13    14    1
     5    13    15   ar
     6    15     4    1
     7     4     5   ar
     8     5     6   ar
     9     6     7   ar
    10     7     3    1
    11     3     2    1
    12     2     1    1
    13     1    17    1
    14    17    18    1
    15    18    19    1
    16    19    20    1
    17    20    21    1
    18    21    22    1
    19    22    23    1
    20    23    24    1
    21    24    25   ar
    22    25    26   ar
    23    26    27   ar
    24    27    28    1
    25    27    29   ar
    26    29    30   ar
    27    21    31    1
    28     7     8   ar
    29     8     9    1
    30    15    16   ar
    31    16    11   ar
    32     8     4   ar
    33    31    18    1
    34    30    21    1
    35    30    24   ar
@<TRIPOS>MOLECULE
*****
 31 35 0 0 0
SMALL
GASTEIGER

@<TRIPOS>ATOM
      1 C         139.7404  140.4287  168.4061 C.3     1  UNL1        0.0294
      2 C         140.8679  139.9393  169.2660 C.3     1  UNL1        0.0666
      3 S         142.2730  139.9561  168.7415 S.3     1  UNL1       -0.0756
      4 C         143.0058  141.4604  165.2392 C.ar    1  UNL1        0.1740
      5 N         143.2705  142.6427  166.1237 N.ar    1  UNL1       -0.1277
      6 N         143.0282  142.2231  167.5433 N.ar    1  UNL1       -0.1221
      7 C         142.6138  140.7814  167.5362 C.ar    1  UNL1        0.1932
      8 N         142.6000  140.3100  166.1123 N.ar    1  UNL1       -0.2880
      9 C         142.2430  138.9306  165.6437 C.3     1  UNL1        0.1340
     10 C         141.7846  141.2681  160.1058 C.3     1  UNL1        0.0594
     11 C         142.5646  141.3448  161.3848 C.ar    1  UNL1        0.0883
     12 N         144.0571  141.4379  161.5030 N.ar    1  UNL1       -0.2469
     13 C         144.4040  141.4925  162.9613 C.ar    1  UNL1        0.0685
     14 C         145.7862  141.5893  163.5358 C.3     1  UNL1        0.0527
     15 C         143.1260  141.4332  163.7443 C.ar    1  UNL1        0.0799
     16 S         141.9892  141.3419  162.7700 S.2     1  UNL1       -0.0680
     17 C         138.7799  139.4492  167.7996 C.3     1  UNL1        0.0730
     18 N         138.6916  139.3106  166.3086 N.3     1  UNL1       -0.2724
     19 C         138.7889  138.0292  165.5350 C.3     1  UNL1        0.0725
     20 C         138.6479  138.3557  164.0778 C.3     1  UNL1        0.0227
     21 C         138.4635  139.8389  163.9508 C.3     1  UNL1        0.0350
     22 C         138.4365  139.2487  162.5720 C.3     1  UNL1        0.0101
     23 C         138.2353  140.3672  161.5929 C.3     1  UNL1        0.0264
     24 C         138.1380  141.6485  162.3666 C.ar    1  UNL1       -0.0260
     25 C         137.9392  143.0705  161.9324 C.ar    1  UNL1       -0.0023
     26 C         137.8814  144.1660  162.9554 C.ar    1  UNL1        0.0293
     27 C         138.0224  143.8395  164.4126 C.ar    1  UNL1        0.1398
     28 F         137.9645  144.9350  165.4357 F       1  UNL1       -0.2042
     29 C         138.2212  142.4175  164.8468 C.ar    1  UNL1        0.0251
     30 C         138.2790  141.3221  163.8238 C.ar    1  UNL1       -0.0232
     31 C         138.4904  140.4291  165.3295 C.3     1  UNL1        0.0761
@<TRIPOS>BOND
     1    10    11    1
     2    11    12   ar
     3    12    13   ar
     4    13    14    1
     5    13    15   ar
     6    15     4    1
     7     4     5   ar
     8     5     6   ar
     9     6     7   ar
    10     7     3    1
    11     3     2    1
    12     2     1    1
    13     1    17    1
    14    17    18    1
    15    18    19    1
    16    19    20    1
    17    20    21    1
    18    21    22    1
    19    22    23    1
    20    23    24    1
    21    24    25   ar
    22    25    26   ar
    23    26    27   ar
    24    27    28    1
    25    27    29   ar
    26    29    30   ar
    27    21    31    1
    28     7     8   ar
    29     8     9    1
    30    15    16   ar
    31    16    11   ar
    32     8     4   ar
    33    31    18    1
    34    30    21    1
    35    30    24   ar
@<TRIPOS>MOLECULE
*****
 31 35 0 0 0
SMALL
GASTEIGER

@<TRIPOS>ATOM
      1 C         140.1070  138.5418  161.4967 C.3     1  UNL1        0.0294
      2 C         141.1946  137.8288  162.2443 C.3     1  UNL1        0.0666
      3 S         141.0124  137.4942  163.6951 S.3     1  UNL1       -0.0756
      4 C         141.9196  139.8226  166.6651 C.ar    1  UNL1        0.1740
      5 N         143.2742  139.5645  166.0748 N.ar    1  UNL1       -0.1277
      6 N         143.0992  138.6608  164.8904 N.ar    1  UNL1       -0.1221
      7 C         141.6365  138.3605  164.7487 C.ar    1  UNL1        0.1932
      8 N         140.9074  139.0784  165.8455 N.ar    1  UNL1       -0.2880
      9 C         139.4262  139.0562  166.0813 C.3     1  UNL1        0.1340
     10 C         140.4067  143.8676  169.7032 C.3     1  UNL1        0.0594
     11 C         140.9329  142.5344  169.2609 C.ar    1  UNL1        0.0883
     12 N         141.4273  141.4396  170.1592 N.ar    1  UNL1       -0.2469
     13 C         141.8571  140.2905  169.2961 C.ar    1  UNL1        0.0685
     14 C         142.4173  138.9858  169.7798 C.3     1  UNL1        0.0527
     15 C         141.6283  140.6751  167.8645 C.ar    1  UNL1        0.0799
     16 S         141.0571  142.0619  167.8427 S.2     1  UNL1       -0.0680
     17 C         138.8427  138.9320  162.2032 C.3     1  UNL1        0.0730
     18 N         138.6887  140.3187  162.7540 N.3     1  UNL1       -0.2724
     19 C         137.3913  141.0100  163.0521 C.3     1  UNL1        0.0725
     20 C         137.7059  142.3760  163.5859 C.3     1  UNL1        0.0227
     21 C         139.1978  142.5290  163.6177 C.3     1  UNL1        0.0350
     22 C         138.5904  143.8005  164.1318 C.3     1  UNL1        0.0101
     23 C         139.7069  144.7393  164.4813 C.3     1  UNL1        0.0264
     24 C         141.0042  144.0480  164.1832 C.ar    1  UNL1       -0.0260
     25 C         142.4314  144.4860  164.3289 C.ar    1  UNL1       -0.0023
     26 C         143.5441  143.5578  163.9408 C.ar    1  UNL1        0.0293
     27 C         143.2295  142.1918  163.4070 C.ar    1  UNL1        0.1398
     28 F         144.3422  141.2636  163.0189 F       1  UNL1       -0.2042
     29 C         141.8022  141.7539  163.2614 C.ar    1  UNL1        0.0251
     30 C         140.6896  142.6820  163.6495 C.ar    1  UNL1       -0.0232
     31 C         139.8052  141.2575  163.1036 C.3     1  UNL1        0.0761
@<TRIPOS>BOND
     1    10    11    1
     2    11    12   ar
     3    12    13   ar
     4    13    14    1
     5    13    15   ar
     6    15     4    1
     7     4     5   ar
     8     5     6   ar
     9     6     7   ar
    10     7     3    1
    11     3     2    1
    12     2     1    1
    13     1    17    1
    14    17    18    1
    15    18    19    1
    16    19    20    1
    17    20    21    1
    18    21    22    1
    19    22    23    1
    20    23    24    1
    21    24    25   ar
    22    25    26   ar
    23    26    27   ar
    24    27    28    1
    25    27    29   ar
    26    29    30   ar
    27    21    31    1
    28     7     8   ar
    29     8     9    1
    30    15    16   ar
    31    16    11   ar
    32     8     4   ar
    33    31    18    1
    34    30    21    1
    35    30    24   ar
@<TRIPOS>MOLECULE
*****
 31 35 0 0 0
SMALL
GASTEIGER

@<TRIPOS>ATOM
      1 C         138.9974  138.1055  161.8423 C.3     1  UNL1        0.0294
      2 C         138.1370  138.7920  160.8232 C.3     1  UNL1        0.0666
      3 S         137.7277  140.2206  161.0272 S.3     1  UNL1       -0.0756
      4 C         139.9447  142.4002  163.3510 C.ar    1  UNL1        0.1740
      5 N         138.7436  142.1774  164.2216 N.ar    1  UNL1       -0.1277
      6 N         137.7670  141.3338  163.4571 N.ar    1  UNL1       -0.1221
      7 C         138.3644  141.0352  162.1140 C.ar    1  UNL1        0.1932
      8 N         139.7103  141.6942  162.0484 N.ar    1  UNL1       -0.2880
      9 C         140.6557  141.6544  160.8846 C.3     1  UNL1        0.1340
     10 C         144.6381  143.7461  165.3612 C.3     1  UNL1        0.0594
     11 C         143.3230  143.8088  164.6425 C.ar    1  UNL1        0.0883
     12 N         142.7661  145.0030  163.9256 N.ar    1  UNL1       -0.2469
     13 C         141.4328  144.6206  163.3546 C.ar    1  UNL1        0.0685
     14 C         140.5258  145.5122  162.5593 C.3     1  UNL1        0.0527
     15 C         141.1657  143.1902  163.7186 C.ar    1  UNL1        0.0799
     16 S         142.3339  142.6884  164.5145 S.2     1  UNL1       -0.0680
     17 C         140.4754  137.9840  161.6166 C.3     1  UNL1        0.0730
     18 N         141.4337  138.3466  162.7121 N.3     1  UNL1       -0.2724
     19 C         142.9288  138.3873  162.5980 C.3     1  UNL1        0.0725
     20 C         143.4842  138.7980  163.9295 C.3     1  UNL1        0.0227
     21 C         142.3324  139.0111  164.8665 C.3     1  UNL1        0.0350
     22 C         143.5997  139.2901  165.6189 C.3     1  UNL1        0.0101
     23 C         143.2311  139.6756  167.0209 C.3     1  UNL1        0.0264
     24 C         141.7360  139.6348  167.1349 C.ar    1  UNL1       -0.0260
     25 C         140.8086  139.9187  168.2792 C.ar    1  UNL1       -0.0023
     26 C         139.3258  139.7918  168.0920 C.ar    1  UNL1        0.0293
     27 C         138.7703  139.3811  166.7606 C.ar    1  UNL1        0.1398
     28 F         137.2874  139.2543  166.5733 F       1  UNL1       -0.2042
     29 C         139.6977  139.0973  165.6163 C.ar    1  UNL1        0.0251
     30 C         141.1806  139.2242  165.8035 C.ar    1  UNL1       -0.0232
     31 C         141.0651  138.7321  164.1141 C.3     1  UNL1        0.0761
@<TRIPOS>BOND
     1    10    11    1
     2    11    12   ar
     3    12    13   ar
     4    13    14    1
     5    13    15   ar
     6    15     4    1
     7     4     5   ar
     8     5     6   ar
     9     6     7   ar
    10     7     3    1
    11     3     2    1
    12     2     1    1
    13     1    17    1
    14    17    18    1
    15    18    19    1
    16    19    20    1
    17    20    21    1
    18    21    22    1
    19    22    23    1
    20    23    24    1
    21    24    25   ar
    22    25    26   ar
    23    26    27   ar
    24    27    28    1
    25    27    29   ar
    26    29    30   ar
    27    21    31    1
    28     7     8   ar
    29     8     9    1
    30    15    16   ar
    31    16    11   ar
    32     8     4   ar
    33    31    18    1
    34    30    21    1
    35    30    24   ar
@<TRIPOS>MOLECULE
*****
 31 35 0 0 0
SMALL
GASTEIGER

@<TRIPOS>ATOM
      1 C         139.7253  141.0839  160.0757 C.3     1  UNL1        0.0294
      2 C         138.5046  140.2502  159.8209 C.3     1  UNL1        0.0666
      3 S         137.7047  139.7198  160.9736 S.3     1  UNL1       -0.0756
      4 C         138.4772  140.7230  164.6428 C.ar    1  UNL1        0.1740
      5 N         137.6300  141.8785  164.1985 N.ar    1  UNL1       -0.1277
      6 N         137.2376  141.6433  162.7700 N.ar    1  UNL1       -0.1221
      7 C         137.8421  140.3425  162.3313 C.ar    1  UNL1        0.1932
      8 N         138.6082  139.7737  163.4887 N.ar    1  UNL1       -0.2880
      9 C         139.3714  138.4824  163.4916 C.3     1  UNL1        0.1340
     10 C         141.4889  141.4177  168.9238 C.3     1  UNL1        0.0594
     11 C         140.4706  140.8669  167.9700 C.ar    1  UNL1        0.0883
     12 N         139.5764  139.6885  168.2186 N.ar    1  UNL1       -0.2469
     13 C         138.7208  139.4912  167.0025 C.ar    1  UNL1        0.0685
     14 C         137.6822  138.4246  166.8187 C.3     1  UNL1        0.0527
     15 C         139.0863  140.5476  166.0023 C.ar    1  UNL1        0.0799
     16 S         140.1677  141.3979  166.6003 S.2     1  UNL1       -0.0680
     17 C         139.6197  142.5799  160.1028 C.3     1  UNL1        0.0730
     18 N         140.3907  143.3679  161.1200 N.3     1  UNL1       -0.2724
     19 C         140.0241  144.7231  161.6481 C.3     1  UNL1        0.0725
     20 C         141.0705  145.1318  162.6421 C.3     1  UNL1        0.0227
     21 C         142.0838  144.0291  162.7282 C.3     1  UNL1        0.0350
     22 C         142.5040  145.1193  163.6690 C.3     1  UNL1        0.0101
     23 C         143.7770  144.6903  164.3365 C.3     1  UNL1        0.0264
     24 C         144.1435  143.3352  163.8083 C.ar    1  UNL1       -0.0260
     25 C         145.2949  142.4204  164.1040 C.ar    1  UNL1       -0.0023
     26 C         145.4000  141.0971  163.4057 C.ar    1  UNL1        0.0293
     27 C         144.3536  140.6884  162.4118 C.ar    1  UNL1        0.1398
     28 F         144.4586  139.3649  161.7135 F       1  UNL1       -0.2042
     29 C         143.2022  141.6031  162.1161 C.ar    1  UNL1        0.0251
     30 C         143.0971  142.9265  162.8144 C.ar    1  UNL1       -0.0232
     31 C         141.6636  142.9390  161.7875 C.3     1  UNL1        0.0761
@<TRIPOS>BOND
     1    10    11    1
     2    11    12   ar
     3    12    13   ar
     4    13    14    1
     5    13    15   ar
     6    15     4    1
     7     4     5   ar
     8     5     6   ar
     9     6     7   ar
    10     7     3    1
    11     3     2    1
    12     2     1    1
    13     1    17    1
    14    17    18    1
    15    18    19    1
    16    19    20    1
    17    20    21    1
    18    21    22    1
    19    22    23    1
    20    23    24    1
    21    24    25   ar
    22    25    26   ar
    23    26    27   ar
    24    27    28    1
    25    27    29   ar
    26    29    30   ar
    27    21    31    1
    28     7     8   ar
    29     8     9    1
    30    15    16   ar
    31    16    11   ar
    32     8     4   ar
    33    31    18    1
    34    30    21    1
    35    30    24   ar
@<TRIPOS>MOLECULE
*****
 31 35 0 0 0
SMALL
GASTEIGER

@<TRIPOS>ATOM
      1 C         144.1652  142.0078  161.3529 C.3     1  UNL1        0.0294
      2 C         144.4974  140.6887  161.9851 C.3     1  UNL1        0.0666
      3 S         144.8047  140.6159  163.4514 S.3     1  UNL1       -0.0756
      4 C         142.2515  139.6634  166.2154 C.ar    1  UNL1        0.1740
      5 N         142.3686  138.3672  165.4697 N.ar    1  UNL1       -0.1277
      6 N         143.3393  138.5662  164.3436 N.ar    1  UNL1       -0.1221
      7 C         143.8221  139.9855  164.3932 C.ar    1  UNL1        0.1932
      8 N         143.1499  140.6636  165.5500 N.ar    1  UNL1       -0.2880
      9 C         143.3422  142.0913  165.9681 C.3     1  UNL1        0.1340
     10 C         140.6892  140.5676  171.1775 C.3     1  UNL1        0.0594
     11 C         140.6697  140.3309  169.6964 C.ar    1  UNL1        0.0883
     12 N         139.4475  140.2748  168.8286 N.ar    1  UNL1       -0.2469
     13 C         139.8913  140.0180  167.4189 C.ar    1  UNL1        0.0685
     14 C         138.9959  139.8869  166.2227 C.3     1  UNL1        0.0527
     15 C         141.3878  139.9153  167.4156 C.ar    1  UNL1        0.0799
     16 S         141.8689  140.1087  168.8231 S.2     1  UNL1       -0.0680
     17 C         144.1502  143.2557  162.1850 C.3     1  UNL1        0.0730
     18 N         142.8677  143.7313  162.8007 N.3     1  UNL1       -0.2724
     19 C         142.6627  145.0341  163.5154 C.3     1  UNL1        0.0725
     20 C         141.2333  145.0955  163.9662 C.3     1  UNL1        0.0227
     21 C         140.5550  143.8307  163.5301 C.3     1  UNL1        0.0350
     22 C         139.5449  144.6738  164.2504 C.3     1  UNL1        0.0101
     23 C         138.2423  143.9300  164.2595 C.3     1  UNL1        0.0264
     24 C         138.4474  142.6273  163.5448 C.ar    1  UNL1       -0.0260
     25 C         137.5172  141.4891  163.2462 C.ar    1  UNL1       -0.0023
     26 C         138.0164  140.2894  162.4969 C.ar    1  UNL1        0.0293
     27 C         139.4456  140.2279  162.0461 C.ar    1  UNL1        0.1398
     28 F         139.9449  139.0281  161.2967 F       1  UNL1       -0.2042
     29 C         140.3758  141.3662  162.3447 C.ar    1  UNL1        0.0251
     30 C         139.8766  142.5659  163.0940 C.ar    1  UNL1       -0.0232
     31 C         141.5651  142.9876  162.8098 C.3     1  UNL1        0.0761
@<TRIPOS>BOND
     1    10    11    1
     2    11    12   ar
     3    12    13   ar
     4    13    14    1
     5    13    15   ar
     6    15     4    1
     7     4     5   ar
     8     5     6   ar
     9     6     7   ar
    10     7     3    1
    11     3     2    1
    12     2     1    1
    13     1    17    1
    14    17    18    1
    15    18    19    1
    16    19    20    1
    17    20    21    1
    18    21    22    1
    19    22    23    1
    20    23    24    1
    21    24    25   ar
    22    25    26   ar
    23    26    27   ar
    24    27    28    1
    25    27    29   ar
    26    29    30   ar
    27    21    31    1
    28     7     8   ar
    29     8     9    1
    30    15    16   ar
    31    16    11   ar
    32     8     4   ar
    33    31    18    1
    34    30    21    1
    35    30    24   ar
@<TRIPOS>MOLECULE
*****
 31 35 0 0 0
SMALL
GASTEIGER

@<TRIPOS>ATOM
      1 C         138.2930  143.0104  161.2836 C.3     1  UNL1        0.0294
      2 C         138.0757  141.8112  162.1582 C.3     1  UNL1        0.0666
      3 S         137.7749  141.9913  163.6166 S.3     1  UNL1       -0.0756
      4 C         139.8127  140.2727  166.4379 C.ar    1  UNL1        0.1740
      5 N         138.9771  139.1284  165.9455 N.ar    1  UNL1       -0.1277
      6 N         138.1121  139.6329  164.8287 N.ar    1  UNL1       -0.1221
      7 C         138.4130  141.0890  164.6309 C.ar    1  UNL1        0.1932
      8 N         139.4640  141.4845  165.6253 N.ar    1  UNL1       -0.2880
      9 C         140.0614  142.8517  165.7801 C.3     1  UNL1        0.1340
     10 C         142.1003  140.7491  171.1729 C.3     1  UNL1        0.0594
     11 C         141.8715  140.4343  169.7243 C.ar    1  UNL1        0.0883
     12 N         142.8689  139.8199  168.7874 N.ar    1  UNL1       -0.2469
     13 C         142.2190  139.6846  167.4422 C.ar    1  UNL1        0.0685
     14 C         142.8562  139.1180  166.2082 C.3     1  UNL1        0.0527
     15 C         140.8200  140.2154  167.5478 C.ar    1  UNL1        0.0799
     16 S         140.6052  140.6788  168.9582 S.2     1  UNL1       -0.0680
     17 C         139.6800  143.3798  160.8481 C.3     1  UNL1        0.0730
     18 N         140.6706  143.8896  161.8525 N.3     1  UNL1       -0.2724
     19 C         140.6496  145.2404  162.5044 C.3     1  UNL1        0.0725
     20 C         141.8221  145.3236  163.4361 C.3     1  UNL1        0.0227
     21 C         142.5679  144.0244  163.3601 C.3     1  UNL1        0.0350
     22 C         143.2796  144.9107  164.3388 C.3     1  UNL1        0.0101
     23 C         144.4652  144.1592  164.8676 C.3     1  UNL1        0.0264
     24 C         144.4862  142.8085  164.2157 C.ar    1  UNL1       -0.0260
     25 C         145.4216  141.6436  164.3500 C.ar    1  UNL1       -0.0023
     26 C         145.1844  140.3954  163.5527 C.ar    1  UNL1        0.0293
     27 C         144.0119  140.3120  162.6210 C.ar    1  UNL1        0.1398
     28 F         143.7747  139.0638  161.8237 F       1  UNL1       -0.2042
     29 C         143.0765  141.4769  162.4867 C.ar    1  UNL1        0.0251
     30 C         143.3137  142.7251  163.2840 C.ar    1  UNL1       -0.0232
     31 C         141.8562  143.1381  162.3813 C.3     1  UNL1        0.0761
@<TRIPOS>BOND
     1    10    11    1
     2    11    12   ar
     3    12    13   ar
     4    13    14    1
     5    13    15   ar
     6    15     4    1
     7     4     5   ar
     8     5     6   ar
     9     6     7   ar
    10     7     3    1
    11     3     2    1
    12     2     1    1
    13     1    17    1
    14    17    18    1
    15    18    19    1
    16    19    20    1
    17    20    21    1
    18    21    22    1
    19    22    23    1
    20    23    24    1
    21    24    25   ar
    22    25    26   ar
    23    26    27   ar
    24    27    28    1
    25    27    29   ar
    26    29    30   ar
    27    21    31    1
    28     7     8   ar
    29     8     9    1
    30    15    16   ar
    31    16    11   ar
    32     8     4   ar
    33    31    18    1
    34    30    21    1
    35    30    24   ar
@<TRIPOS>MOLECULE
*****
 31 35 0 0 0
SMALL
GASTEIGER

@<TRIPOS>ATOM
      1 C         142.9733  138.1471  161.1387 C.3     1  UNL1        0.0294
      2 C         143.9472  138.8910  160.2736 C.3     1  UNL1        0.0666
      3 S         143.4948  140.0914  159.4962 S.3     1  UNL1       -0.0756
      4 C         142.0605  143.1211  161.4531 C.ar    1  UNL1        0.1740
      5 N         143.4492  143.6016  161.1521 N.ar    1  UNL1       -0.1277
      6 N         144.1555  142.5252  160.3824 N.ar    1  UNL1       -0.1221
      7 C         143.2034  141.3794  160.2077 C.ar    1  UNL1        0.1932
      8 N         141.9085  141.7476  160.8694 N.ar    1  UNL1       -0.2880
      9 C         140.6779  140.8926  160.9358 C.3     1  UNL1        0.1340
     10 C         138.7921  144.7207  165.2793 C.3     1  UNL1        0.0594
     11 C         139.5062  144.6159  163.9643 C.ar    1  UNL1        0.0883
     12 N         139.2729  145.4832  162.7628 N.ar    1  UNL1       -0.2469
     13 C         140.2014  145.0287  161.6759 C.ar    1  UNL1        0.0685
     14 C         140.3046  145.6188  160.3007 C.3     1  UNL1        0.0527
     15 C         141.0084  143.8807  162.2056 C.ar    1  UNL1        0.0799
     16 S         140.5788  143.6255  163.6199 S.2     1  UNL1       -0.0680
     17 C         143.0257  138.3002  162.6299 C.3     1  UNL1        0.0730
     18 N         141.7618  138.2370  163.4353 N.3     1  UNL1       -0.2724
     19 C         140.5819  137.3540  163.1563 C.3     1  UNL1        0.0725
     20 C         139.5468  137.6170  164.2096 C.3     1  UNL1        0.0227
     21 C         140.0871  138.6626  165.1395 C.3     1  UNL1        0.0350
     22 C         138.7181  138.2794  165.6181 C.3     1  UNL1        0.0101
     23 C         138.4123  139.0882  166.8438 C.3     1  UNL1        0.0264
     24 C         139.5923  139.9712  167.1227 C.ar    1  UNL1       -0.0260
     25 C         139.8580  140.9808  168.1998 C.ar    1  UNL1       -0.0023
     26 C         141.1587  141.7274  168.2236 C.ar    1  UNL1        0.0293
     27 C         142.1938  141.4644  167.1704 C.ar    1  UNL1        0.1398
     28 F         143.4946  142.2110  167.1941 F       1  UNL1       -0.2042
     29 C         141.9281  140.4548  166.0933 C.ar    1  UNL1        0.0251
     30 C         140.6273  139.7082  166.0695 C.ar    1  UNL1       -0.0232
     31 C         141.4561  139.0458  164.6610 C.3     1  UNL1        0.0761
@<TRIPOS>BOND
     1    10    11    1
     2    11    12   ar
     3    12    13   ar
     4    13    14    1
     5    13    15   ar
     6    15     4    1
     7     4     5   ar
     8     5     6   ar
     9     6     7   ar
    10     7     3    1
    11     3     2    1
    12     2     1    1
    13     1    17    1
    14    17    18    1
    15    18    19    1
    16    19    20    1
    17    20    21    1
    18    21    22    1
    19    22    23    1
    20    23    24    1
    21    24    25   ar
    22    25    26   ar
    23    26    27   ar
    24    27    28    1
    25    27    29   ar
    26    29    30   ar
    27    21    31    1
    28     7     8   ar
    29     8     9    1
    30    15    16   ar
    31    16    11   ar
    32     8     4   ar
    33    31    18    1
    34    30    21    1
    35    30    24   ar
@<TRIPOS>MOLECULE
*****
 31 35 0 0 0
SMALL
GASTEIGER

@<TRIPOS>ATOM
      1 C         142.6658  139.9719  168.4078 C.3     1  UNL1        0.0294
      2 C         141.6014  139.6554  169.4164 C.3     1  UNL1        0.0666
      3 S         140.2046  140.1646  169.2175 S.3     1  UNL1       -0.0756
      4 C         139.1232  141.2425  165.6490 C.ar    1  UNL1        0.1740
      5 N         138.4904  139.8860  165.7464 N.ar    1  UNL1       -0.1277
      6 N         138.8185  139.3171  167.0950 N.ar    1  UNL1       -0.1221
      7 C         139.6541  140.3220  167.8311 C.ar    1  UNL1        0.1932
      8 N         139.8424  141.5120  166.9375 N.ar    1  UNL1       -0.2880
      9 C         140.6144  142.7534  167.2734 C.3     1  UNL1        0.1340
     10 C         139.6858  145.4771  162.5454 C.3     1  UNL1        0.0594
     11 C         139.3083  144.1135  163.0436 C.ar    1  UNL1        0.0883
     12 N         138.5649  143.0663  162.2686 N.ar    1  UNL1       -0.2469
     13 C         138.4051  141.8634  163.1502 C.ar    1  UNL1        0.0685
     14 C         137.7207  140.5817  162.7775 C.3     1  UNL1        0.0527
     15 C         139.0497  142.1671  164.4701 C.ar    1  UNL1        0.0799
     16 S         139.6080  143.5578  164.4043 S.2     1  UNL1       -0.0680
     17 C         142.9773  138.9939  167.3141 C.3     1  UNL1        0.0730
     18 N         142.5339  139.2740  165.9087 N.3     1  UNL1       -0.2724
     19 C         141.7382  138.3505  165.0347 C.3     1  UNL1        0.0725
     20 C         141.5209  139.0325  163.7165 C.3     1  UNL1        0.0227
     21 C         142.1823  140.3776  163.7759 C.3     1  UNL1        0.0350
     22 C         141.5562  140.2284  162.4210 C.3     1  UNL1        0.0101
     23 C         141.8306  141.4812  161.6431 C.3     1  UNL1        0.0264
     24 C         142.6263  142.4046  162.5172 C.ar    1  UNL1       -0.0260
     25 C         143.1810  143.7784  162.2831 C.ar    1  UNL1       -0.0023
     26 C         143.9531  144.4703  163.3672 C.ar    1  UNL1        0.0293
     27 C         144.1704  143.7883  164.6854 C.ar    1  UNL1        0.1398
     28 F         144.9425  144.4801  165.7696 F       1  UNL1       -0.2042
     29 C         143.6157  142.4144  164.9194 C.ar    1  UNL1        0.0251
     30 C         142.8436  141.7226  163.8353 C.ar    1  UNL1       -0.0232
     31 C         142.8084  140.5268  165.1308 C.3     1  UNL1        0.0761
@<TRIPOS>BOND
     1    10    11    1
     2    11    12   ar
     3    12    13   ar
     4    13    14    1
     5    13    15   ar
     6    15     4    1
     7     4     5   ar
     8     5     6   ar
     9     6     7   ar
    10     7     3    1
    11     3     2    1
    12     2     1    1
    13     1    17    1
    14    17    18    1
    15    18    19    1
    16    19    20    1
    17    20    21    1
    18    21    22    1
    19    22    23    1
    20    23    24    1
    21    24    25   ar
    22    25    26   ar
    23    26    27   ar
    24    27    28    1
    25    27    29   ar
    26    29    30   ar
    27    21    31    1
    28     7     8   ar
    29     8     9    1
    30    15    16   ar
    31    16    11   ar
    32     8     4   ar
    33    31    18    1
    34    30    21    1
    35    30    24   ar
