@<TRIPOS>MOLECULE
*****
 28 31 0 0 0
SMALL
GASTEIGER

@<TRIPOS>ATOM
      1 C         139.4938  138.6406  165.0396 C.ar    1  UNL1       -0.0059
      2 C         138.8195  138.8067  163.7101 C.ar    1  UNL1        0.0002
      3 C         139.5423  138.4316  162.4504 C.ar    1  UNL1        0.0373
      4 C         140.9396  137.8904  162.5202 C.ar    1  UNL1        0.1477
      5 C         141.6139  137.7242  163.8498 C.ar    1  UNL1        0.0373
      6 C         140.8910  138.0994  165.1094 C.ar    1  UNL1        0.0002
      7 C         138.7710  139.0157  166.2993 C.3     1  UNL1        0.0991
      8 C         140.3840  142.2922  168.9285 C.3     1  UNL1        0.0790
      9 C         140.5212  142.3906  167.4380 C.3     1  UNL1        0.0264
     10 C         139.9836  141.2984  166.5616 C.3     1  UNL1        0.0729
     11 N         139.3086  140.1079  167.1757 N.3     1  UNL1       -0.2689
     12 C         139.1714  140.0095  168.6661 C.3     1  UNL1        0.0729
     13 C         139.7090  141.1017  169.5426 C.3     1  UNL1        0.0264
     14 N         140.0495  144.5477  170.1739 N.am    1  UNL1       -0.3288
     15 C         140.9216  143.3844  169.8049 C.2     1  UNL1        0.2190
     16 O         142.3314  143.3132  170.3123 O.2     1  UNL1       -0.2753
     17 H         140.4025  145.2645  170.7491 H       1  UNL1        0.1449
     18 H         139.1243  144.5943  169.8409 H       1  UNL1        0.1449
     19 O         141.6624  137.5152  161.2606 O.3     1  UNL1       -0.4313
     20 C         142.3886  138.5643  160.4718 C.ar    1  UNL1        0.2642
     21 N         143.1155  138.3486  159.1776 N.ar    1  UNL1       -0.1859
     22 C         143.6916  139.6642  158.7446 C.ar    1  UNL1        0.1720
     23 N         144.5059  140.0583  157.5482 N.ar    1  UNL1       -0.2245
     24 C         144.9494  141.4811  157.3785 C.ar    1  UNL1        0.1006
     25 C         144.5785  142.5099  158.4052 C.ar    1  UNL1        0.0213
     26 C         143.7642  142.1158  159.6016 C.ar    1  UNL1        0.0113
     27 C         143.3207  140.6930  159.7713 C.ar    1  UNL1        0.0697
     28 S         142.5154  140.0131  160.8388 S.2     1  UNL1       -0.0267
@<TRIPOS>BOND
     1    14    15   am
     2    15    16    2
     3    15     8    1
     4     8     9    1
     5     9    10    1
     6    10    11    1
     7    11     7    1
     8     7     1    1
     9     1     2   ar
    10     2     3   ar
    11     3     4   ar
    12     4    19    1
    13    19    20    1
    14    20    21   ar
    15    21    22   ar
    16    22    23   ar
    17    23    24   ar
    18    24    25   ar
    19    25    26   ar
    20    26    27   ar
    21    27    28   ar
    22     4     5   ar
    23     5     6   ar
    24    11    12    1
    25    12    13    1
    26    13     8    1
    27     6     1   ar
    28    28    20   ar
    29    27    22   ar
    30    14    17    1
    31    14    18    1
@<TRIPOS>MOLECULE
*****
 28 31 0 0 0
SMALL
GASTEIGER

@<TRIPOS>ATOM
      1 C         139.4016  138.6982  165.1578 C.ar    1  UNL1       -0.0059
      2 C         140.7166  137.9767  165.1528 C.ar    1  UNL1        0.0002
      3 C         141.3743  137.6252  163.8512 C.ar    1  UNL1        0.0373
      4 C         140.7169  137.9952  162.5548 C.ar    1  UNL1        0.1477
      5 C         139.4017  138.7168  162.5598 C.ar    1  UNL1        0.0373
      6 C         138.7441  139.0682  163.8613 C.ar    1  UNL1        0.0002
      7 C         138.7439  139.0497  166.4594 C.3     1  UNL1        0.0991
      8 C         140.4222  142.3574  169.0073 C.3     1  UNL1        0.0790
      9 C         139.7584  141.1770  169.6523 C.3     1  UNL1        0.0264
     10 C         139.1990  140.0744  168.8030 C.3     1  UNL1        0.0729
     11 N         139.3033  140.1522  167.3087 N.3     1  UNL1       -0.2689
     12 C         139.9671  141.3326  166.6637 C.3     1  UNL1        0.0729
     13 C         140.5266  142.4352  167.5130 C.3     1  UNL1        0.0264
     14 N         142.3619  143.3375  170.4311 N.am    1  UNL1       -0.3288
     15 C         140.9817  143.4600  169.8566 C.2     1  UNL1        0.2190
     16 O         140.1609  144.6850  170.1315 O.2     1  UNL1       -0.2753
     17 H         142.7291  144.0612  170.9885 H       1  UNL1        0.1449
     18 H         142.9006  142.5335  170.2506 H       1  UNL1        0.1449
     19 O         141.3745  137.6438  161.2533 O.3     1  UNL1       -0.4313
     20 C         142.1709  138.6767  160.5124 C.ar    1  UNL1        0.2642
     21 N         142.6250  139.9981  161.0577 N.ar    1  UNL1       -0.1859
     22 C         143.3878  140.7076  159.9784 C.ar    1  UNL1        0.1720
     23 N         144.0689  142.0436  159.9430 N.ar    1  UNL1       -0.2245
     24 C         144.7672  142.4965  158.6952 C.ar    1  UNL1        0.1006
     25 C         144.7845  141.6135  157.4828 C.ar    1  UNL1        0.0213
     26 C         144.1034  140.2775  157.5182 C.ar    1  UNL1        0.0113
     27 C         143.4051  139.8246  158.7660 C.ar    1  UNL1        0.0697
     28 S         142.6530  138.5694  159.0960 S.2     1  UNL1       -0.0267
@<TRIPOS>BOND
     1    14    15   am
     2    15    16    2
     3    15     8    1
     4     8     9    1
     5     9    10    1
     6    10    11    1
     7    11     7    1
     8     7     1    1
     9     1     2   ar
    10     2     3   ar
    11     3     4   ar
    12     4    19    1
    13    19    20    1
    14    20    21   ar
    15    21    22   ar
    16    22    23   ar
    17    23    24   ar
    18    24    25   ar
    19    25    26   ar
    20    26    27   ar
    21    27    28   ar
    22     4     5   ar
    23     5     6   ar
    24    11    12    1
    25    12    13    1
    26    13     8    1
    27     6     1   ar
    28    28    20   ar
    29    27    22   ar
    30    14    17    1
    31    14    18    1
@<TRIPOS>MOLECULE
*****
 28 31 0 0 0
SMALL
GASTEIGER

@<TRIPOS>ATOM
      1 C         138.5306  138.9789  165.6152 C.ar    1  UNL1       -0.0059
      2 C         138.0827  140.0533  164.6692 C.ar    1  UNL1        0.0002
      3 C         138.1418  139.8212  163.1883 C.ar    1  UNL1        0.0373
      4 C         138.6489  138.5147  162.6536 C.ar    1  UNL1        0.1477
      5 C         139.0968  137.4402  163.5997 C.ar    1  UNL1        0.0373
      6 C         139.0377  137.6724  165.0804 C.ar    1  UNL1        0.0002
      7 C         138.4715  139.2109  167.0960 C.3     1  UNL1        0.0991
      8 C         141.6994  141.5969  169.1301 C.3     1  UNL1        0.0790
      9 C         140.4631  141.2102  169.8864 C.3     1  UNL1        0.0264
     10 C         139.3871  140.4149  169.2083 C.3     1  UNL1        0.0729
     11 N         139.5475  140.0063  167.7740 N.3     1  UNL1       -0.2689
     12 C         140.7838  140.3930  167.0177 C.3     1  UNL1        0.0729
     13 C         141.8598  141.1883  167.6957 C.3     1  UNL1        0.0264
     14 N         142.5952  142.8396  171.2285 N.am    1  UNL1       -0.3288
     15 C         142.7754  142.3923  169.8081 C.2     1  UNL1        0.2190
     16 O         144.0315  142.7402  169.0658 O.2     1  UNL1       -0.2753
     17 H         143.3014  143.3616  171.6735 H       1  UNL1        0.1449
     18 H         141.7708  142.6112  171.7157 H       1  UNL1        0.1449
     19 O         138.7080  138.2825  161.1729 O.3     1  UNL1       -0.4313
     20 C         138.8255  139.4474  160.2352 C.ar    1  UNL1        0.2642
     21 N         137.7433  139.9691  159.3372 N.ar    1  UNL1       -0.1859
     22 C         138.2948  141.1392  158.5779 C.ar    1  UNL1        0.1720
     23 N         137.6850  142.0473  157.5514 N.ar    1  UNL1       -0.2245
     24 C         138.4984  143.1568  156.9538 C.ar    1  UNL1        0.1006
     25 C         139.9216  143.3584  157.3826 C.ar    1  UNL1        0.0213
     26 C         140.5314  142.4503  158.4090 C.ar    1  UNL1        0.0113
     27 C         139.7180  141.3408  159.0067 C.ar    1  UNL1        0.0697
     28 S         140.0460  140.2952  160.0310 S.2     1  UNL1       -0.0267
@<TRIPOS>BOND
     1    14    15   am
     2    15    16    2
     3    15     8    1
     4     8     9    1
     5     9    10    1
     6    10    11    1
     7    11     7    1
     8     7     1    1
     9     1     2   ar
    10     2     3   ar
    11     3     4   ar
    12     4    19    1
    13    19    20    1
    14    20    21   ar
    15    21    22   ar
    16    22    23   ar
    17    23    24   ar
    18    24    25   ar
    19    25    26   ar
    20    26    27   ar
    21    27    28   ar
    22     4     5   ar
    23     5     6   ar
    24    11    12    1
    25    12    13    1
    26    13     8    1
    27     6     1   ar
    28    28    20   ar
    29    27    22   ar
    30    14    17    1
    31    14    18    1
@<TRIPOS>MOLECULE
*****
 28 31 0 0 0
SMALL
GASTEIGER

@<TRIPOS>ATOM
      1 C         138.5487  139.4978  165.3764 C.ar    1  UNL1       -0.0059
      2 C         138.0779  140.8739  165.0092 C.ar    1  UNL1        0.0002
      3 C         137.8239  141.2212  163.5722 C.ar    1  UNL1        0.0373
      4 C         138.0407  140.1924  162.5024 C.ar    1  UNL1        0.1477
      5 C         138.5115  138.8163  162.8696 C.ar    1  UNL1        0.0373
      6 C         138.7655  138.4690  164.3065 C.ar    1  UNL1        0.0002
      7 C         138.8027  139.1505  166.8134 C.3     1  UNL1        0.0991
      8 C         141.7912  141.5161  169.2056 C.3     1  UNL1        0.0790
      9 C         142.1364  141.0533  167.8211 C.3     1  UNL1        0.0264
     10 C         141.1403  140.2648  167.0238 C.3     1  UNL1        0.0729
     11 N         139.7989  139.9391  167.6108 N.3     1  UNL1       -0.2689
     12 C         139.4536  140.4019  168.9951 C.3     1  UNL1        0.0729
     13 C         140.4498  141.1904  169.7926 C.3     1  UNL1        0.0264
     14 N         142.4785  142.6890  171.4196 N.am    1  UNL1       -0.3288
     15 C         142.7874  142.3047  170.0030 C.2     1  UNL1        0.2190
     16 O         144.0923  142.7089  169.3837 O.2     1  UNL1       -0.2753
     17 H         143.1324  143.2065  171.9430 H       1  UNL1        0.1449
     18 H         141.6220  142.4236  171.8261 H       1  UNL1        0.1449
     19 O         137.7867  140.5396  161.0654 O.3     1  UNL1       -0.4313
     20 C         138.6418  141.5629  160.3787 C.ar    1  UNL1        0.2642
     21 N         138.5587  143.0491  160.5639 N.ar    1  UNL1       -0.1859
     22 C         139.5957  143.6844  159.6858 C.ar    1  UNL1        0.1720
     23 N         139.9742  145.1174  159.4551 N.ar    1  UNL1       -0.2245
     24 C         141.0768  145.4568  158.4963 C.ar    1  UNL1        0.1006
     25 C         141.8007  144.3632  157.7683 C.ar    1  UNL1        0.0213
     26 C         141.4222  142.9303  157.9991 C.ar    1  UNL1        0.0113
     27 C         140.3197  142.5909  158.9578 C.ar    1  UNL1        0.0697
     28 S         139.7301  141.2797  159.3860 S.2     1  UNL1       -0.0267
@<TRIPOS>BOND
     1    14    15   am
     2    15    16    2
     3    15     8    1
     4     8     9    1
     5     9    10    1
     6    10    11    1
     7    11     7    1
     8     7     1    1
     9     1     2   ar
    10     2     3   ar
    11     3     4   ar
    12     4    19    1
    13    19    20    1
    14    20    21   ar
    15    21    22   ar
    16    22    23   ar
    17    23    24   ar
    18    24    25   ar
    19    25    26   ar
    20    26    27   ar
    21    27    28   ar
    22     4     5   ar
    23     5     6   ar
    24    11    12    1
    25    12    13    1
    26    13     8    1
    27     6     1   ar
    28    28    20   ar
    29    27    22   ar
    30    14    17    1
    31    14    18    1
@<TRIPOS>MOLECULE
*****
 28 31 0 0 0
SMALL
GASTEIGER

@<TRIPOS>ATOM
      1 C         138.5278  139.0039  165.7055 C.ar    1  UNL1       -0.0059
      2 C         138.1107  140.1682  164.8567 C.ar    1  UNL1        0.0002
      3 C         138.0980  140.0404  163.3622 C.ar    1  UNL1        0.0373
      4 C         138.5024  138.7483  162.7165 C.ar    1  UNL1        0.1477
      5 C         138.9195  137.5840  163.5653 C.ar    1  UNL1        0.0373
      6 C         138.9322  137.7118  165.0598 C.ar    1  UNL1        0.0002
      7 C         138.5404  139.1316  167.2000 C.3     1  UNL1        0.0991
      8 C         141.7367  141.5692  169.2228 C.3     1  UNL1        0.0790
      9 C         140.4303  141.3216  169.9171 C.3     1  UNL1        0.0264
     10 C         139.3648  140.5091  169.2428 C.3     1  UNL1        0.0729
     11 N         139.6058  139.9441  167.8743 N.3     1  UNL1       -0.2689
     12 C         140.9122  140.1917  167.1801 C.3     1  UNL1        0.0729
     13 C         141.9777  141.0042  167.8543 C.3     1  UNL1        0.0264
     14 N         142.6140  142.8373  171.3138 N.am    1  UNL1       -0.3288
     15 C         142.8021  142.3817  169.8971 C.2     1  UNL1        0.2190
     16 O         144.0557  142.7385  169.1547 O.2     1  UNL1       -0.2753
     17 H         143.3133  143.3706  171.7563 H       1  UNL1        0.1449
     18 H         141.7912  142.6031  171.8011 H       1  UNL1        0.1449
     19 O         138.4898  138.6205  161.2220 O.3     1  UNL1       -0.4313
     20 C         139.7101  138.9817  160.4280 C.ar    1  UNL1        0.2642
     21 N         140.9348  139.6677  160.9567 N.ar    1  UNL1       -0.1859
     22 C         141.9015  139.8303  159.8213 C.ar    1  UNL1        0.1720
     23 N         143.2719  140.4359  159.7489 N.ar    1  UNL1       -0.2245
     24 C         144.0151  140.4560  158.4461 C.ar    1  UNL1        0.1006
     25 C         143.3878  139.8705  157.2157 C.ar    1  UNL1        0.0213
     26 C         142.0174  139.2650  157.2882 C.ar    1  UNL1        0.0113
     27 C         141.2743  139.2449  158.5910 C.ar    1  UNL1        0.0697
     28 S         139.9199  138.7204  158.9659 S.2     1  UNL1       -0.0267
@<TRIPOS>BOND
     1    14    15   am
     2    15    16    2
     3    15     8    1
     4     8     9    1
     5     9    10    1
     6    10    11    1
     7    11     7    1
     8     7     1    1
     9     1     2   ar
    10     2     3   ar
    11     3     4   ar
    12     4    19    1
    13    19    20    1
    14    20    21   ar
    15    21    22   ar
    16    22    23   ar
    17    23    24   ar
    18    24    25   ar
    19    25    26   ar
    20    26    27   ar
    21    27    28   ar
    22     4     5   ar
    23     5     6   ar
    24    11    12    1
    25    12    13    1
    26    13     8    1
    27     6     1   ar
    28    28    20   ar
    29    27    22   ar
    30    14    17    1
    31    14    18    1
@<TRIPOS>MOLECULE
*****
 28 31 0 0 0
SMALL
GASTEIGER

@<TRIPOS>ATOM
      1 C         138.4617  138.6335  163.0593 C.ar    1  UNL1       -0.0059
      2 C         138.0880  139.9513  163.6706 C.ar    1  UNL1        0.0002
      3 C         138.1025  140.1177  165.1613 C.ar    1  UNL1        0.0373
      4 C         138.4908  138.9662  166.0407 C.ar    1  UNL1        0.1477
      5 C         138.8645  137.6484  165.4294 C.ar    1  UNL1        0.0373
      6 C         138.8500  137.4821  163.9387 C.ar    1  UNL1        0.0002
      7 C         138.4472  138.4672  161.5686 C.3     1  UNL1        0.0991
      8 C         142.1194  139.4473  159.1594 C.3     1  UNL1        0.0790
      9 C         140.8410  139.0836  158.4639 C.3     1  UNL1        0.0264
     10 C         139.6170  138.7569  159.2669 C.3     1  UNL1        0.0729
     11 N         139.6712  138.7938  160.7655 N.3     1  UNL1       -0.2689
     12 C         140.9495  139.1575  161.4610 C.3     1  UNL1        0.0729
     13 C         142.1736  139.4842  160.6579 C.3     1  UNL1        0.0264
     14 N         143.7251  138.9146  157.1876 N.am    1  UNL1       -0.3288
     15 C         143.3434  139.7739  158.3563 C.2     1  UNL1        0.2190
     16 O         144.1857  140.9600  158.7219 O.2     1  UNL1       -0.2753
     17 H         144.5285  139.1290  156.6605 H       1  UNL1        0.1449
     18 H         143.1722  138.1361  156.9477 H       1  UNL1        0.1449
     19 O         138.5053  139.1325  167.5313 O.3     1  UNL1       -0.4313
     20 C         139.5731  139.9600  168.1833 C.ar    1  UNL1        0.2642
     21 N         139.4438  140.7042  169.4792 N.ar    1  UNL1       -0.1859
     22 C         140.7485  141.3927  169.7507 C.ar    1  UNL1        0.1720
     23 N         141.2053  142.2686  170.8794 N.ar    1  UNL1       -0.2245
     24 C         142.5980  142.8259  170.8799 C.ar    1  UNL1        0.1006
     25 C         143.5337  142.5072  169.7517 C.ar    1  UNL1        0.0213
     26 C         143.0769  141.6313  168.6230 C.ar    1  UNL1        0.0113
     27 C         141.6843  141.0740  168.6225 C.ar    1  UNL1        0.0697
     28 S         140.9578  140.1886  167.6538 S.2     1  UNL1       -0.0267
@<TRIPOS>BOND
     1    14    15   am
     2    15    16    2
     3    15     8    1
     4     8     9    1
     5     9    10    1
     6    10    11    1
     7    11     7    1
     8     7     1    1
     9     1     2   ar
    10     2     3   ar
    11     3     4   ar
    12     4    19    1
    13    19    20    1
    14    20    21   ar
    15    21    22   ar
    16    22    23   ar
    17    23    24   ar
    18    24    25   ar
    19    25    26   ar
    20    26    27   ar
    21    27    28   ar
    22     4     5   ar
    23     5     6   ar
    24    11    12    1
    25    12    13    1
    26    13     8    1
    27     6     1   ar
    28    28    20   ar
    29    27    22   ar
    30    14    17    1
    31    14    18    1
@<TRIPOS>MOLECULE
*****
 28 31 0 0 0
SMALL
GASTEIGER

@<TRIPOS>ATOM
      1 C         138.8251  139.7303  164.6651 C.ar    1  UNL1       -0.0059
      2 C         139.5620  139.0933  163.5244 C.ar    1  UNL1        0.0002
      3 C         139.2264  139.4691  162.1115 C.ar    1  UNL1        0.0373
      4 C         138.1539  140.4819  161.8394 C.ar    1  UNL1        0.1477
      5 C         137.4171  141.1189  162.9802 C.ar    1  UNL1        0.0373
      6 C         137.7527  140.7431  164.3930 C.ar    1  UNL1        0.0002
      7 C         139.1608  139.3545  166.0780 C.3     1  UNL1        0.0991
      8 C         140.4891  142.5158  168.9921 C.3     1  UNL1        0.0790
      9 C         139.8768  141.2420  169.4948 C.3     1  UNL1        0.0264
     10 C         139.4340  140.1883  168.5235 C.3     1  UNL1        0.0729
     11 N         139.6035  140.4082  167.0494 N.3     1  UNL1       -0.2689
     12 C         140.2159  141.6819  166.5467 C.3     1  UNL1        0.0729
     13 C         140.6587  142.7357  167.5180 C.3     1  UNL1        0.0264
     14 N         140.0361  144.7337  170.2670 N.am    1  UNL1       -0.3288
     15 C         140.9319  143.5695  169.9634 C.2     1  UNL1        0.2190
     16 O         142.2705  143.4590  170.6312 O.2     1  UNL1       -0.2753
     17 H         140.3267  145.4253  170.9046 H       1  UNL1        0.1449
     18 H         139.1575  144.8062  169.8288 H       1  UNL1        0.1449
     19 O         137.8183  140.8577  160.4266 O.3     1  UNL1       -0.4313
     20 C         138.5758  141.9570  159.7428 C.ar    1  UNL1        0.2642
     21 N         138.4831  142.3206  158.2905 N.ar    1  UNL1       -0.1859
     22 C         139.4090  143.4741  158.0413 C.ar    1  UNL1        0.1720
     23 N         139.7325  144.2515  156.8000 N.ar    1  UNL1       -0.2245
     24 C         140.7211  145.3782  156.8569 C.ar    1  UNL1        0.1006
     25 C         141.3861  145.7275  158.1553 C.ar    1  UNL1        0.0213
     26 C         141.0626  144.9501  159.3966 C.ar    1  UNL1        0.0113
     27 C         140.0741  143.8234  159.3397 C.ar    1  UNL1        0.0697
     28 S         139.5591  142.8858  160.3912 S.2     1  UNL1       -0.0267
@<TRIPOS>BOND
     1    14    15   am
     2    15    16    2
     3    15     8    1
     4     8     9    1
     5     9    10    1
     6    10    11    1
     7    11     7    1
     8     7     1    1
     9     1     2   ar
    10     2     3   ar
    11     3     4   ar
    12     4    19    1
    13    19    20    1
    14    20    21   ar
    15    21    22   ar
    16    22    23   ar
    17    23    24   ar
    18    24    25   ar
    19    25    26   ar
    20    26    27   ar
    21    27    28   ar
    22     4     5   ar
    23     5     6   ar
    24    11    12    1
    25    12    13    1
    26    13     8    1
    27     6     1   ar
    28    28    20   ar
    29    27    22   ar
    30    14    17    1
    31    14    18    1
@<TRIPOS>MOLECULE
*****
 28 31 0 0 0
SMALL
GASTEIGER

@<TRIPOS>ATOM
      1 C         142.1013  139.0240  163.9803 C.ar    1  UNL1       -0.0059
      2 C         142.0928  140.2772  163.1560 C.ar    1  UNL1        0.0002
      3 C         141.3942  140.2971  161.8287 C.ar    1  UNL1        0.0373
      4 C         140.7041  139.0639  161.3258 C.ar    1  UNL1        0.1477
      5 C         140.7126  137.8107  162.1501 C.ar    1  UNL1        0.0373
      6 C         141.4112  137.7908  163.4773 C.ar    1  UNL1        0.0002
      7 C         142.7999  139.0041  165.3076 C.3     1  UNL1        0.0991
      8 C         140.5368  140.0383  169.0571 C.3     1  UNL1        0.0790
      9 C         141.9883  139.6679  169.1351 C.3     1  UNL1        0.0264
     10 C         142.7427  139.3232  167.8853 C.3     1  UNL1        0.0729
     11 N         142.0455  139.3488  166.5574 N.3     1  UNL1       -0.2689
     12 C         140.5941  139.7191  166.4793 C.3     1  UNL1        0.0729
     13 C         139.8397  140.0638  167.7292 C.3     1  UNL1        0.0264
     14 N         139.5712  139.3425  171.3665 N.am    1  UNL1       -0.3288
     15 C         139.7825  140.3830  170.3069 C.2     1  UNL1        0.2190
     16 O         139.2395  141.7682  170.4971 O.2     1  UNL1       -0.2753
     17 H         139.0761  139.5688  172.1868 H       1  UNL1        0.1449
     18 H         139.9276  138.4333  171.2416 H       1  UNL1        0.1449
     19 O         140.0055  139.0838  159.9985 O.3     1  UNL1       -0.4313
     20 C         140.6566  138.4619  158.7989 C.ar    1  UNL1        0.2642
     21 N         142.1001  138.0711  158.6825 N.ar    1  UNL1       -0.1859
     22 C         142.3142  137.4892  157.3166 C.ar    1  UNL1        0.1720
     23 N         143.5337  136.9350  156.6416 N.ar    1  UNL1       -0.2245
     24 C         143.4419  136.4119  155.2388 C.ar    1  UNL1        0.1006
     25 C         142.1307  136.4431  154.5110 C.ar    1  UNL1        0.0213
     26 C         140.9112  136.9972  155.1860 C.ar    1  UNL1        0.0113
     27 C         141.0030  137.5203  156.5888 C.ar    1  UNL1        0.0697
     28 S         139.9785  138.1215  157.5049 S.2     1  UNL1       -0.0267
@<TRIPOS>BOND
     1    14    15   am
     2    15    16    2
     3    15     8    1
     4     8     9    1
     5     9    10    1
     6    10    11    1
     7    11     7    1
     8     7     1    1
     9     1     2   ar
    10     2     3   ar
    11     3     4   ar
    12     4    19    1
    13    19    20    1
    14    20    21   ar
    15    21    22   ar
    16    22    23   ar
    17    23    24   ar
    18    24    25   ar
    19    25    26   ar
    20    26    27   ar
    21    27    28   ar
    22     4     5   ar
    23     5     6   ar
    24    11    12    1
    25    12    13    1
    26    13     8    1
    27     6     1   ar
    28    28    20   ar
    29    27    22   ar
    30    14    17    1
    31    14    18    1
@<TRIPOS>MOLECULE
*****
 28 31 0 0 0
SMALL
GASTEIGER

@<TRIPOS>ATOM
      1 C         139.9440  139.2883  160.0860 C.ar    1  UNL1       -0.0059
      2 C         141.3065  139.0371  160.6609 C.ar    1  UNL1        0.0002
      3 C         142.3545  138.3521  159.8347 C.ar    1  UNL1        0.0373
      4 C         142.0400  137.9183  158.4337 C.ar    1  UNL1        0.1477
      5 C         140.6774  138.1695  157.8588 C.ar    1  UNL1        0.0373
      6 C         139.6295  138.8545  158.6850 C.ar    1  UNL1        0.0002
      7 C         138.8960  139.9733  160.9122 C.3     1  UNL1        0.0991
      8 C         138.3523  138.8532  165.2365 C.3     1  UNL1        0.0790
      9 C         138.7325  137.8056  164.2324 C.3     1  UNL1        0.0264
     10 C         138.9137  138.1790  162.7910 C.3     1  UNL1        0.0729
     11 N         138.7148  139.6000  162.3536 N.3     1  UNL1       -0.2689
     12 C         138.3347  140.6475  163.3576 C.3     1  UNL1        0.0729
     13 C         138.1534  140.2742  164.7991 C.3     1  UNL1        0.0264
     14 N         137.3383  137.2874  167.0448 N.am    1  UNL1       -0.3288
     15 C         138.1711  138.4798  166.6779 C.2     1  UNL1        0.2190
     16 O         138.8226  139.2989  167.7524 O.2     1  UNL1       -0.2753
     17 H         137.2194  137.0423  167.9909 H       1  UNL1        0.1449
     18 H         136.9107  136.7498  166.3395 H       1  UNL1        0.1449
     19 O         143.0879  137.2333  157.6075 O.3     1  UNL1       -0.4313
     20 C         142.8423  135.8504  157.0809 C.ar    1  UNL1        0.2642
     21 N         143.2527  134.5689  157.7437 N.ar    1  UNL1       -0.1859
     22 C         142.8073  133.4326  156.8716 C.ar    1  UNL1        0.1720
     23 N         142.9376  131.9454  157.0165 N.ar    1  UNL1       -0.2245
     24 C         142.3821  131.0374  155.9596 C.ar    1  UNL1        0.1006
     25 C         141.6964  131.6167  154.7578 C.ar    1  UNL1        0.0213
     26 C         141.5661  133.1040  154.6129 C.ar    1  UNL1        0.0113
     27 C         142.1216  134.0119  155.6698 C.ar    1  UNL1        0.0697
     28 S         142.1433  135.5062  155.7992 S.2     1  UNL1       -0.0267
@<TRIPOS>BOND
     1    14    15   am
     2    15    16    2
     3    15     8    1
     4     8     9    1
     5     9    10    1
     6    10    11    1
     7    11     7    1
     8     7     1    1
     9     1     2   ar
    10     2     3   ar
    11     3     4   ar
    12     4    19    1
    13    19    20    1
    14    20    21   ar
    15    21    22   ar
    16    22    23   ar
    17    23    24   ar
    18    24    25   ar
    19    25    26   ar
    20    26    27   ar
    21    27    28   ar
    22     4     5   ar
    23     5     6   ar
    24    11    12    1
    25    12    13    1
    26    13     8    1
    27     6     1   ar
    28    28    20   ar
    29    27    22   ar
    30    14    17    1
    31    14    18    1
