@<TRIPOS>MOLECULE
*****
 28 31 0 0 0
SMALL
GASTEIGER

@<TRIPOS>ATOM
      1 C         142.0215  140.2546  166.4185 C.2     1  UNL1        0.0365
      2 C         142.5057  141.0225  167.6127 C.2     1  UNL1        0.0160
      3 C         141.6159  141.1884  168.8088 C.3     1  UNL1        0.1543
      4 C         142.9898  141.7903  168.8069 C.3     1  UNL1        0.0614
      5 C         143.4740  142.5581  170.0010 C.3     1  UNL1        0.0725
      6 N         142.5842  142.7241  171.1971 N.3     1  UNL1       -0.2972
      7 C         141.2102  142.1223  171.1991 C.3     1  UNL1        0.0725
      8 C         140.7261  141.3544  170.0049 C.3     1  UNL1        0.0614
      9 O         140.2419  140.5866  168.8108 O.3     1  UNL1       -0.4785
     10 C         139.7578  139.8187  167.6166 C.ar    1  UNL1        0.1387
     11 C         138.3838  139.2168  167.6186 C.ar    1  UNL1        0.0369
     12 C         137.8996  138.4490  166.4244 C.ar    1  UNL1        0.0031
     13 C         138.7894  138.2830  165.2283 C.ar    1  UNL1        0.0002
     14 C         140.1634  138.8849  165.2263 C.ar    1  UNL1        0.0031
     15 C         140.6476  139.6527  166.4205 C.ar    1  UNL1        0.0367
     16 H         142.4664  143.7272  171.3396 H       1  UNL1        0.1233
     17 C         143.8387  140.2946  162.9890 C.ar    1  UNL1        0.1986
     18 C         144.7225  139.3718  163.7745 C.ar    1  UNL1        0.0453
     19 C         144.1494  139.2445  165.1549 C.ar    1  UNL1        0.0408
     20 C         142.9113  140.0886  165.2224 C.ar    1  UNL1        0.1454
     21 O         142.7193  140.7376  163.8838 O.2     1  UNL1       -0.4489
     22 N         144.4438  142.1091  161.2308 N.am    1  UNL1       -0.2736
     23 C         144.0390  140.7027  161.5595 C.2     1  UNL1        0.2837
     24 O         143.8344  139.7044  160.4589 O.2     1  UNL1       -0.2666
     25 C         143.4863  143.0334  158.9995 C.3     1  UNL1        0.0233
     26 C         144.6441  142.5173  159.8014 C.3     1  UNL1        0.0939
     27 C         144.6483  143.1074  162.3315 C.3     1  UNL1        0.0939
     28 C         143.5961  144.1385  162.6140 C.3     1  UNL1        0.0233
@<TRIPOS>BOND
     1    25    26    1
     2    26    22    1
     3    22    27    1
     4    27    28    1
     5    22    23   am
     6    23    24    2
     7    23    17    1
     8    17    18   ar
     9    18    19   ar
    10    19    20   ar
    11    20     1    1
    12     1     2    2
    13     2     3    1
    14     3     4    1
    15     4     5    1
    16     5     6    1
    17     6     7    1
    18     7     8    1
    19     3     9    1
    20     9    10    1
    21    10    11   ar
    22    11    12   ar
    23    12    13   ar
    24    13    14   ar
    25    14    15   ar
    26    20    21   ar
    27    21    17   ar
    28    15     1    1
    29     8     3    1
    30    15    10   ar
    31     6    16    1
@<TRIPOS>MOLECULE
*****
 28 31 0 0 0
SMALL
GASTEIGER

@<TRIPOS>ATOM
      1 C         140.6769  142.1784  166.1666 C.2     1  UNL1        0.0365
      2 C         140.4503  142.4857  167.6173 C.2     1  UNL1        0.0160
      3 C         141.1183  141.6554  168.6730 C.3     1  UNL1        0.1543
      4 C         140.2238  142.7929  169.0679 C.3     1  UNL1        0.0614
      5 C         139.9972  143.1001  170.5185 C.3     1  UNL1        0.0725
      6 N         140.6652  142.2698  171.5741 N.3     1  UNL1       -0.2972
      7 C         141.5597  141.1323  171.1792 C.3     1  UNL1        0.0725
      8 C         141.7862  140.8251  169.7286 C.3     1  UNL1        0.0614
      9 O         142.0128  140.5179  168.2780 O.3     1  UNL1       -0.4785
     10 C         142.2393  140.2107  166.8274 C.ar    1  UNL1        0.1387
     11 C         143.1339  139.0732  166.4324 C.ar    1  UNL1        0.0369
     12 C         143.3604  138.7660  164.9818 C.ar    1  UNL1        0.0031
     13 C         142.6924  139.5963  163.9261 C.ar    1  UNL1        0.0002
     14 C         141.7979  140.7337  164.3210 C.ar    1  UNL1        0.0031
     15 C         141.5714  141.0410  165.7717 C.ar    1  UNL1        0.0367
     16 H         139.9229  141.8741  172.1510 H       1  UNL1        0.1233
     17 C         139.6457  144.4072  163.1608 C.ar    1  UNL1        0.1986
     18 C         138.3162  144.1655  163.8119 C.ar    1  UNL1        0.0453
     19 C         138.5407  143.3012  165.0172 C.ar    1  UNL1        0.0408
     20 C         140.0089  143.0087  165.1109 C.ar    1  UNL1        0.1454
     21 O         140.6918  143.6923  163.9636 O.2     1  UNL1       -0.4489
     22 N         140.0753  144.5381  160.6019 N.am    1  UNL1       -0.2736
     23 C         139.8868  145.2210  161.9240 C.2     1  UNL1        0.2837
     24 O         139.9393  146.7176  162.0095 O.2     1  UNL1       -0.2666
     25 C         141.5800  145.1649  158.5788 C.3     1  UNL1        0.0233
     26 C         140.3164  145.3519  159.3651 C.3     1  UNL1        0.0939
     27 C         140.0228  143.0415  160.5165 C.3     1  UNL1        0.0939
     28 C         141.2591  142.2318  160.7733 C.3     1  UNL1        0.0233
@<TRIPOS>BOND
     1    25    26    1
     2    26    22    1
     3    22    27    1
     4    27    28    1
     5    22    23   am
     6    23    24    2
     7    23    17    1
     8    17    18   ar
     9    18    19   ar
    10    19    20   ar
    11    20     1    1
    12     1     2    2
    13     2     3    1
    14     3     4    1
    15     4     5    1
    16     5     6    1
    17     6     7    1
    18     7     8    1
    19     3     9    1
    20     9    10    1
    21    10    11   ar
    22    11    12   ar
    23    12    13   ar
    24    13    14   ar
    25    14    15   ar
    26    20    21   ar
    27    21    17   ar
    28    15     1    1
    29     8     3    1
    30    15    10   ar
    31     6    16    1
@<TRIPOS>MOLECULE
*****
 28 31 0 0 0
SMALL
GASTEIGER

@<TRIPOS>ATOM
      1 C         140.8533  142.0248  166.5307 C.2     1  UNL1        0.0365
      2 C         141.4506  142.3742  167.8616 C.2     1  UNL1        0.0160
      3 C         141.0484  141.6100  169.0881 C.3     1  UNL1        0.1543
      4 C         142.0479  142.7236  169.1924 C.3     1  UNL1        0.0614
      5 C         142.6452  143.0731  170.5232 C.3     1  UNL1        0.0725
      6 N         142.2430  142.3089  171.7497 N.3     1  UNL1       -0.2972
      7 C         141.2435  141.1953  171.6454 C.3     1  UNL1        0.0725
      8 C         140.6463  140.8459  170.3146 C.3     1  UNL1        0.0614
      9 O         140.0489  140.4964  168.9837 O.3     1  UNL1       -0.4785
     10 C         139.4516  140.1470  167.6529 C.ar    1  UNL1        0.1387
     11 C         138.4521  139.0333  167.5485 C.ar    1  UNL1        0.0369
     12 C         137.8548  138.6839  166.2177 C.ar    1  UNL1        0.0031
     13 C         138.2570  139.4481  164.9912 C.ar    1  UNL1        0.0002
     14 C         139.2565  140.5617  165.0955 C.ar    1  UNL1        0.0031
     15 C         139.8538  140.9112  166.4264 C.ar    1  UNL1        0.0367
     16 H         141.8596  142.9879  172.4072 H       1  UNL1        0.1233
     17 C         142.4225  143.4696  163.2880 C.ar    1  UNL1        0.1986
     18 C         141.3262  144.4603  163.5457 C.ar    1  UNL1        0.0453
     19 C         140.6049  144.0396  164.7918 C.ar    1  UNL1        0.0408
     20 C         141.2555  142.7889  165.3042 C.ar    1  UNL1        0.1454
     21 O         142.3788  142.4367  164.3748 O.2     1  UNL1       -0.4489
     22 N         143.1588  142.6483  160.9357 N.am    1  UNL1       -0.2736
     23 C         143.3923  143.5055  162.1442 C.2     1  UNL1        0.2837
     24 O         144.5957  144.3986  162.2091 O.2     1  UNL1       -0.2666
     25 C         144.0695  141.6313  158.7252 C.3     1  UNL1        0.0233
     26 C         144.1286  142.6842  159.7920 C.3     1  UNL1        0.0939
     27 C         141.9554  141.7552  160.8709 C.3     1  UNL1        0.0939
     28 C         140.6812  142.2569  160.2588 C.3     1  UNL1        0.0233
@<TRIPOS>BOND
     1    25    26    1
     2    26    22    1
     3    22    27    1
     4    27    28    1
     5    22    23   am
     6    23    24    2
     7    23    17    1
     8    17    18   ar
     9    18    19   ar
    10    19    20   ar
    11    20     1    1
    12     1     2    2
    13     2     3    1
    14     3     4    1
    15     4     5    1
    16     5     6    1
    17     6     7    1
    18     7     8    1
    19     3     9    1
    20     9    10    1
    21    10    11   ar
    22    11    12   ar
    23    12    13   ar
    24    13    14   ar
    25    14    15   ar
    26    20    21   ar
    27    21    17   ar
    28    15     1    1
    29     8     3    1
    30    15    10   ar
    31     6    16    1
@<TRIPOS>MOLECULE
*****
 28 31 0 0 0
SMALL
GASTEIGER

@<TRIPOS>ATOM
      1 C         140.3692  142.0297  165.3773 C.2     1  UNL1        0.0365
      2 C         140.3916  142.3415  166.8444 C.2     1  UNL1        0.0160
      3 C         139.9923  141.2931  167.8402 C.3     1  UNL1        0.1543
      4 C         140.4140  142.6533  168.3115 C.3     1  UNL1        0.0614
      5 C         140.4363  142.9650  169.7785 C.3     1  UNL1        0.0725
      6 N         140.0371  141.9167  170.7743 N.3     1  UNL1       -0.2972
      7 C         139.6155  140.5565  170.3029 C.3     1  UNL1        0.0725
      8 C         139.5931  140.2447  168.8359 C.3     1  UNL1        0.0614
      9 O         139.5707  139.9329  167.3688 O.3     1  UNL1       -0.4785
     10 C         139.5484  139.6212  165.9017 C.ar    1  UNL1        0.1387
     11 C         139.1267  138.2610  165.4303 C.ar    1  UNL1        0.0369
     12 C         139.1044  137.9492  163.9633 C.ar    1  UNL1        0.0031
     13 C         139.5036  138.9976  162.9676 C.ar    1  UNL1        0.0002
     14 C         139.9252  140.3578  163.4389 C.ar    1  UNL1        0.0031
     15 C         139.9476  140.6696  164.9060 C.ar    1  UNL1        0.0367
     16 H         139.2558  142.2989  171.3070 H       1  UNL1        0.1233
     17 C         140.7363  144.5898  162.4830 C.ar    1  UNL1        0.1986
     18 C         142.0293  144.7932  163.2156 C.ar    1  UNL1        0.0453
     19 C         142.0492  143.8589  164.3890 C.ar    1  UNL1        0.0408
     20 C         140.7684  143.0781  164.3816 C.ar    1  UNL1        0.1454
     21 O         139.9571  143.5298  163.2036 O.2     1  UNL1       -0.4489
     22 N         140.8304  144.9061  159.9061 N.am    1  UNL1       -0.2736
     23 C         140.2993  145.3183  161.2468 C.2     1  UNL1        0.2837
     24 O         139.3310  146.4592  161.3516 O.2     1  UNL1       -0.2666
     25 C         141.3713  145.8818  157.5596 C.3     1  UNL1        0.0233
     26 C         140.3934  145.6347  158.6699 C.3     1  UNL1        0.0939
     27 C         141.7987  143.7653  159.8013 C.3     1  UNL1        0.0939
     28 C         141.2910  142.3632  159.6389 C.3     1  UNL1        0.0233
@<TRIPOS>BOND
     1    25    26    1
     2    26    22    1
     3    22    27    1
     4    27    28    1
     5    22    23   am
     6    23    24    2
     7    23    17    1
     8    17    18   ar
     9    18    19   ar
    10    19    20   ar
    11    20     1    1
    12     1     2    2
    13     2     3    1
    14     3     4    1
    15     4     5    1
    16     5     6    1
    17     6     7    1
    18     7     8    1
    19     3     9    1
    20     9    10    1
    21    10    11   ar
    22    11    12   ar
    23    12    13   ar
    24    13    14   ar
    25    14    15   ar
    26    20    21   ar
    27    21    17   ar
    28    15     1    1
    29     8     3    1
    30    15    10   ar
    31     6    16    1
@<TRIPOS>MOLECULE
*****
 28 31 0 0 0
SMALL
GASTEIGER

@<TRIPOS>ATOM
      1 C         141.1681  140.2498  165.9779 C.2     1  UNL1        0.0365
      2 C         141.6620  139.9551  167.3633 C.2     1  UNL1        0.0160
      3 C         141.4679  140.9614  168.4586 C.3     1  UNL1        0.1543
      4 C         142.1558  139.6604  168.7487 C.3     1  UNL1        0.0614
      5 C         142.6496  139.3657  170.1340 C.3     1  UNL1        0.0725
      6 N         142.4555  140.3720  171.2294 N.3     1  UNL1       -0.2972
      7 C         141.7676  141.6730  170.9393 C.3     1  UNL1        0.0725
      8 C         141.2738  141.9677  169.5539 C.3     1  UNL1        0.0614
      9 O         140.7800  142.2624  168.1685 O.3     1  UNL1       -0.4785
     10 C         140.2862  142.5571  166.7832 C.ar    1  UNL1        0.1387
     11 C         139.5983  143.8582  166.4930 C.ar    1  UNL1        0.0369
     12 C         139.1045  144.1529  165.1077 C.ar    1  UNL1        0.0031
     13 C         139.2985  143.1466  164.0124 C.ar    1  UNL1        0.0002
     14 C         139.9864  141.8456  164.3024 C.ar    1  UNL1        0.0031
     15 C         140.4803  141.5508  165.6879 C.ar    1  UNL1        0.0367
     16 H         143.3832  140.6024  171.5853 H       1  UNL1        0.1233
     17 C         142.0699  138.1923  162.8126 C.ar    1  UNL1        0.1986
     18 C         141.2518  137.1976  163.5815 C.ar    1  UNL1        0.0453
     19 C         140.8145  137.8473  164.8609 C.ar    1  UNL1        0.0408
     20 C         141.3622  139.2435  164.8826 C.ar    1  UNL1        0.1454
     21 O         142.1381  139.4568  163.6167 O.2     1  UNL1       -0.4489
     22 N         141.9167  138.1821  160.2191 N.am    1  UNL1       -0.2736
     23 C         142.7077  137.9629  161.4745 C.2     1  UNL1        0.2837
     24 O         144.1367  137.5143  161.3920 O.2     1  UNL1       -0.2666
     25 C         142.9891  139.1214  158.0471 C.3     1  UNL1        0.0233
     26 C         142.5546  137.9527  158.8810 C.3     1  UNL1        0.0939
     27 C         140.4878  138.6307  160.3018 C.3     1  UNL1        0.0939
     28 C         140.1642  140.0932  160.3825 C.3     1  UNL1        0.0233
@<TRIPOS>BOND
     1    25    26    1
     2    26    22    1
     3    22    27    1
     4    27    28    1
     5    22    23   am
     6    23    24    2
     7    23    17    1
     8    17    18   ar
     9    18    19   ar
    10    19    20   ar
    11    20     1    1
    12     1     2    2
    13     2     3    1
    14     3     4    1
    15     4     5    1
    16     5     6    1
    17     6     7    1
    18     7     8    1
    19     3     9    1
    20     9    10    1
    21    10    11   ar
    22    11    12   ar
    23    12    13   ar
    24    13    14   ar
    25    14    15   ar
    26    20    21   ar
    27    21    17   ar
    28    15     1    1
    29     8     3    1
    30    15    10   ar
    31     6    16    1
@<TRIPOS>MOLECULE
*****
 28 31 0 0 0
SMALL
GASTEIGER

@<TRIPOS>ATOM
      1 C         140.3377  141.6529  165.8903 C.2     1  UNL1        0.0365
      2 C         139.9847  141.1444  167.2567 C.2     1  UNL1        0.0160
      3 C         140.9813  141.2412  168.3735 C.3     1  UNL1        0.1543
      4 C         139.6317  140.6360  168.6230 C.3     1  UNL1        0.0614
      5 C         139.2788  140.1276  169.9894 C.3     1  UNL1        0.0725
      6 N         140.2754  140.2244  171.1062 N.3     1  UNL1       -0.2972
      7 C         141.6250  140.8296  170.8567 C.3     1  UNL1        0.0725
      8 C         141.9780  141.3380  169.4904 C.3     1  UNL1        0.0614
      9 O         142.3310  141.8464  168.1240 O.3     1  UNL1       -0.4785
     10 C         142.6839  142.3548  166.7577 C.ar    1  UNL1        0.1387
     11 C         144.0336  142.9601  166.5081 C.ar    1  UNL1        0.0369
     12 C         144.3865  143.4685  165.1418 C.ar    1  UNL1        0.0031
     13 C         143.3898  143.3717  164.0249 C.ar    1  UNL1        0.0002
     14 C         142.0403  142.7665  164.2744 C.ar    1  UNL1        0.0031
     15 C         141.6873  142.2581  165.6408 C.ar    1  UNL1        0.0367
     16 H         140.4361  139.2742  171.4406 H       1  UNL1        0.1233
     17 C         138.2513  140.9171  162.7010 C.ar    1  UNL1        0.1986
     18 C         137.3632  141.8972  163.4087 C.ar    1  UNL1        0.0453
     19 C         138.0367  142.2921  164.6895 C.ar    1  UNL1        0.0408
     20 C         139.3410  141.5561  164.7735 C.ar    1  UNL1        0.1454
     21 O         139.4737  140.7063  163.5446 O.2     1  UNL1       -0.4489
     22 N         138.2803  140.9835  160.1040 N.am    1  UNL1       -0.2736
     23 C         137.9671  140.2628  161.3816 C.2     1  UNL1        0.2837
     24 O         137.3695  138.8875  161.3398 O.2     1  UNL1       -0.2666
     25 C         137.6845  141.1700  157.5821 C.3     1  UNL1        0.0233
     26 C         137.9961  140.3292  158.7846 C.3     1  UNL1        0.0939
     27 C         138.8779  142.3587  160.1459 C.3     1  UNL1        0.0939
     28 C         140.3667  142.5278  160.2159 C.3     1  UNL1        0.0233
@<TRIPOS>BOND
     1    25    26    1
     2    26    22    1
     3    22    27    1
     4    27    28    1
     5    22    23   am
     6    23    24    2
     7    23    17    1
     8    17    18   ar
     9    18    19   ar
    10    19    20   ar
    11    20     1    1
    12     1     2    2
    13     2     3    1
    14     3     4    1
    15     4     5    1
    16     5     6    1
    17     6     7    1
    18     7     8    1
    19     3     9    1
    20     9    10    1
    21    10    11   ar
    22    11    12   ar
    23    12    13   ar
    24    13    14   ar
    25    14    15   ar
    26    20    21   ar
    27    21    17   ar
    28    15     1    1
    29     8     3    1
    30    15    10   ar
    31     6    16    1
@<TRIPOS>MOLECULE
*****
 28 31 0 0 0
SMALL
GASTEIGER

@<TRIPOS>ATOM
      1 C         141.7882  140.2148  166.1580 C.2     1  UNL1        0.0365
      2 C         141.3036  140.0867  167.5719 C.2     1  UNL1        0.0160
      3 C         141.7985  141.0353  168.6232 C.3     1  UNL1        0.1543
      4 C         140.8191  139.9586  168.9857 C.3     1  UNL1        0.0614
      5 C         140.3347  139.8305  170.3994 C.3     1  UNL1        0.0725
      6 N         140.8296  140.7791  171.4507 N.3     1  UNL1       -0.2972
      7 C         141.8090  141.8558  171.0882 C.3     1  UNL1        0.0725
      8 C         142.2935  141.9839  169.6744 C.3     1  UNL1        0.0614
      9 O         142.7780  142.1120  168.2606 O.3     1  UNL1       -0.4785
     10 C         143.2625  142.2401  166.8468 C.ar    1  UNL1        0.1387
     11 C         144.2420  143.3168  166.4843 C.ar    1  UNL1        0.0369
     12 C         144.7264  143.4449  165.0705 C.ar    1  UNL1        0.0031
     13 C         144.2315  142.4963  164.0192 C.ar    1  UNL1        0.0002
     14 C         143.2521  141.4196  164.3817 C.ar    1  UNL1        0.0031
     15 C         142.7676  141.2915  165.7955 C.ar    1  UNL1        0.0367
     16 H         141.2701  140.2121  172.1751 H       1  UNL1        0.1233
     17 C         140.2231  138.3798  163.1168 C.ar    1  UNL1        0.1986
     18 C         140.8402  137.2330  163.8611 C.ar    1  UNL1        0.0453
     19 C         141.5016  137.7808  165.0910 C.ar    1  UNL1        0.0408
     20 C         141.2933  139.2662  165.1068 C.ar    1  UNL1        0.1454
     21 O         140.5031  139.6363  163.8867 O.2     1  UNL1       -0.4489
     22 N         140.1348  138.6196  160.5314 N.am    1  UNL1       -0.2736
     23 C         139.4600  138.2864  161.8289 C.2     1  UNL1        0.2837
     24 O         138.0219  137.8599  161.8385 O.2     1  UNL1       -0.2666
     25 C         140.0896  138.1955  157.9686 C.3     1  UNL1        0.0233
     26 C         139.3717  138.5263  159.2435 C.3     1  UNL1        0.0939
     27 C         141.5728  139.0461  160.5219 C.3     1  UNL1        0.0939
     28 C         141.9260  140.4964  160.6705 C.3     1  UNL1        0.0233
@<TRIPOS>BOND
     1    25    26    1
     2    26    22    1
     3    22    27    1
     4    27    28    1
     5    22    23   am
     6    23    24    2
     7    23    17    1
     8    17    18   ar
     9    18    19   ar
    10    19    20   ar
    11    20     1    1
    12     1     2    2
    13     2     3    1
    14     3     4    1
    15     4     5    1
    16     5     6    1
    17     6     7    1
    18     7     8    1
    19     3     9    1
    20     9    10    1
    21    10    11   ar
    22    11    12   ar
    23    12    13   ar
    24    13    14   ar
    25    14    15   ar
    26    20    21   ar
    27    21    17   ar
    28    15     1    1
    29     8     3    1
    30    15    10   ar
    31     6    16    1
@<TRIPOS>MOLECULE
*****
 28 31 0 0 0
SMALL
GASTEIGER

@<TRIPOS>ATOM
      1 C         140.2988  140.6073  164.3950 C.2     1  UNL1        0.0365
      2 C         141.1343  140.1460  165.5523 C.2     1  UNL1        0.0160
      3 C         141.2950  141.0235  166.7582 C.3     1  UNL1        0.1543
      4 C         141.9697  139.6847  166.7096 C.3     1  UNL1        0.0614
      5 C         142.8050  139.2234  167.8668 C.3     1  UNL1        0.0725
      6 N         142.9657  140.1009  169.0727 N.3     1  UNL1       -0.2972
      7 C         142.2910  141.4397  169.1214 C.3     1  UNL1        0.0725
      8 C         141.4557  141.9010  167.9641 C.3     1  UNL1        0.0614
      9 O         140.6202  142.3623  166.8068 O.3     1  UNL1       -0.4785
     10 C         139.7848  142.8236  165.6496 C.ar    1  UNL1        0.1387
     11 C         139.1101  144.1624  165.6982 C.ar    1  UNL1        0.0369
     12 C         138.2747  144.6237  164.5409 C.ar    1  UNL1        0.0031
     13 C         138.1140  143.7462  163.3350 C.ar    1  UNL1        0.0002
     14 C         138.7887  142.4075  163.2864 C.ar    1  UNL1        0.0031
     15 C         139.6241  141.9461  164.4437 C.ar    1  UNL1        0.0367
     16 H         143.9655  140.2709  169.1821 H       1  UNL1        0.1233
     17 C         140.3749  138.8101  160.9556 C.ar    1  UNL1        0.1986
     18 C         139.4068  137.9489  161.7113 C.ar    1  UNL1        0.0453
     19 C         139.2605  138.5173  163.0917 C.ar    1  UNL1        0.0408
     20 C         140.1382  139.7298  163.1891 C.ar    1  UNL1        0.1454
     21 O         140.8269  139.9108  161.8689 O.2     1  UNL1       -0.4489
     22 N         142.2008  138.1162  159.2426 N.am    1  UNL1       -0.2736
     23 C         140.8140  138.6065  159.5358 C.2     1  UNL1        0.2837
     24 O         139.8659  138.8932  158.4092 O.2     1  UNL1       -0.2666
     25 C         142.6651  136.5322  157.2363 C.3     1  UNL1        0.0233
     26 C         142.6399  137.9126  157.8229 C.3     1  UNL1        0.0939
     27 C         143.1488  137.8295  160.3692 C.3     1  UNL1        0.0939
     28 C         144.1125  138.8845  160.8254 C.3     1  UNL1        0.0233
@<TRIPOS>BOND
     1    25    26    1
     2    26    22    1
     3    22    27    1
     4    27    28    1
     5    22    23   am
     6    23    24    2
     7    23    17    1
     8    17    18   ar
     9    18    19   ar
    10    19    20   ar
    11    20     1    1
    12     1     2    2
    13     2     3    1
    14     3     4    1
    15     4     5    1
    16     5     6    1
    17     6     7    1
    18     7     8    1
    19     3     9    1
    20     9    10    1
    21    10    11   ar
    22    11    12   ar
    23    12    13   ar
    24    13    14   ar
    25    14    15   ar
    26    20    21   ar
    27    21    17   ar
    28    15     1    1
    29     8     3    1
    30    15    10   ar
    31     6    16    1
@<TRIPOS>MOLECULE
*****
 28 31 0 0 0
SMALL
GASTEIGER

@<TRIPOS>ATOM
      1 C         142.2835  142.5255  165.4224 C.2     1  UNL1        0.0365
      2 C         142.6286  142.1544  166.8343 C.2     1  UNL1        0.0160
      3 C         141.6651  142.4518  167.9448 C.3     1  UNL1        0.1543
      4 C         142.9736  141.7833  168.2461 C.3     1  UNL1        0.0614
      5 C         143.3186  141.4121  169.6579 C.3     1  UNL1        0.0725
      6 N         142.3551  141.7096  170.7684 N.3     1  UNL1       -0.2972
      7 C         141.0466  142.3782  170.4671 C.3     1  UNL1        0.0725
      8 C         140.7016  142.7493  169.0553 C.3     1  UNL1        0.0614
      9 O         140.3565  143.1205  167.6434 O.3     1  UNL1       -0.4785
     10 C         140.0115  143.4916  166.2317 C.ar    1  UNL1        0.1387
     11 C         138.7030  144.1602  165.9303 C.ar    1  UNL1        0.0369
     12 C         138.3580  144.5313  164.5185 C.ar    1  UNL1        0.0031
     13 C         139.3215  144.2339  163.4080 C.ar    1  UNL1        0.0002
     14 C         140.6300  143.5653  163.7093 C.ar    1  UNL1        0.0031
     15 C         140.9750  143.1941  165.1212 C.ar    1  UNL1        0.0367
     16 H         142.8462  142.3090  171.4316 H       1  UNL1        0.1233
     17 C         144.1640  141.7766  162.1106 C.ar    1  UNL1        0.1986
     18 C         145.2953  141.7641  163.0955 C.ar    1  UNL1        0.0453
     19 C         144.7286  142.0431  164.4560 C.ar    1  UNL1        0.0408
     20 C         143.2470  142.2281  164.3119 C.ar    1  UNL1        0.1454
     21 O         142.8981  142.0634  162.8624 O.2     1  UNL1       -0.4489
     22 N         143.7462  140.2772  160.0305 N.am    1  UNL1       -0.2736
     23 C         144.2785  141.5433  160.6333 C.2     1  UNL1        0.2837
     24 O         144.9254  142.5763  159.7589 O.2     1  UNL1       -0.2666
     25 C         142.9334  139.0817  157.8717 C.3     1  UNL1        0.0233
     26 C         143.8606  140.0439  158.5532 C.3     1  UNL1        0.0939
     27 C         143.0993  139.2443  160.9049 C.3     1  UNL1        0.0939
     28 C         143.8990  138.0783  161.4058 C.3     1  UNL1        0.0233
@<TRIPOS>BOND
     1    25    26    1
     2    26    22    1
     3    22    27    1
     4    27    28    1
     5    22    23   am
     6    23    24    2
     7    23    17    1
     8    17    18   ar
     9    18    19   ar
    10    19    20   ar
    11    20     1    1
    12     1     2    2
    13     2     3    1
    14     3     4    1
    15     4     5    1
    16     5     6    1
    17     6     7    1
    18     7     8    1
    19     3     9    1
    20     9    10    1
    21    10    11   ar
    22    11    12   ar
    23    12    13   ar
    24    13    14   ar
    25    14    15   ar
    26    20    21   ar
    27    21    17   ar
    28    15     1    1
    29     8     3    1
    30    15    10   ar
    31     6    16    1
