@<TRIPOS>MOLECULE
*****
 29 31 0 0 0
SMALL
GASTEIGER

@<TRIPOS>ATOM
      1 C         141.1828  136.9174  164.1628 C.3     1  UNL1        0.0956
      2 C         140.9694  138.0852  165.0798 C.ar    1  UNL1       -0.0064
      3 C         142.1411  138.9001  165.5414 C.ar    1  UNL1       -0.0029
      4 C         141.9276  140.0679  166.4583 C.ar    1  UNL1       -0.0003
      5 C         140.5426  140.4208  166.9136 C.ar    1  UNL1        0.0001
      6 C         139.3710  139.6058  166.4520 C.ar    1  UNL1       -0.0003
      7 C         139.5844  138.4380  165.5351 C.ar    1  UNL1       -0.0029
      8 C         140.3293  141.5886  167.8306 C.2     1  UNL1        0.0047
      9 C         140.5429  141.4316  169.3069 C.2     1  UNL1        0.0598
     10 C         140.3296  142.5994  170.2239 C.2     1  UNL1        0.2679
     11 O         140.3221  142.3945  171.7099 O.2     1  UNL1       -0.2681
     12 N         140.1238  143.9720  169.6551 N.am    1  UNL1       -0.1934
     13 O         139.9104  145.1397  170.5722 O.3     1  UNL1       -0.2949
     14 H         140.1287  144.1065  168.6799 H       1  UNL1        0.1825
     15 H         139.9343  144.8361  171.4932 H       1  UNL1        0.2414
     16 N         141.1488  137.1151  162.6763 N.3     1  UNL1       -0.2935
     17 H         141.6457  136.3261  162.2629 H       1  UNL1        0.1236
     18 C         141.7307  138.3584  162.0717 C.3     1  UNL1        0.0736
     19 C         140.8302  139.3751  161.4348 C.3     1  UNL1        0.0462
     20 C         137.6837  138.5408  161.6653 C.3     1  UNL1        0.0537
     21 C         138.3439  139.6924  162.3637 C.ar    1  UNL1        0.0768
     22 N         137.6738  140.6628  163.2907 N.ar    1  UNL1       -0.1698
     23 N         138.7059  141.6461  163.7577 N.ar    1  UNL1       -0.2288
     24 C         138.6237  142.8248  164.6817 C.ar    1  UNL1        0.1003
     25 C         139.8494  143.6407  164.9673 C.ar    1  UNL1        0.0207
     26 C         141.1575  143.2780  164.3289 C.ar    1  UNL1        0.0031
     27 C         141.2397  142.0993  163.4049 C.ar    1  UNL1        0.0189
     28 C         140.0139  141.2833  163.1193 C.ar    1  UNL1        0.0801
     29 C         139.7902  140.0759  162.2578 C.ar    1  UNL1        0.0121
@<TRIPOS>BOND
     1    20    21    1
     2    21    22   ar
     3    22    23   ar
     4    23    24   ar
     5    24    25   ar
     6    25    26   ar
     7    26    27   ar
     8    27    28   ar
     9    28    29   ar
    10    29    19    1
    11    19    18    1
    12    18    16    1
    13    16     1    1
    14     1     2    1
    15     2     3   ar
    16     3     4   ar
    17     4     5   ar
    18     5     8    1
    19     8     9    2
    20     9    10    1
    21    10    11    2
    22    10    12   am
    23    12    13    1
    24     5     6   ar
    25     6     7   ar
    26    29    21   ar
    27     7     2   ar
    28    28    23   ar
    29    16    17    1
    30    12    14    1
    31    13    15    1
@<TRIPOS>MOLECULE
*****
 29 31 0 0 0
SMALL
GASTEIGER

@<TRIPOS>ATOM
      1 C         142.6697  138.2863  163.4899 C.3     1  UNL1        0.0956
      2 C         142.2303  139.2911  164.5132 C.ar    1  UNL1       -0.0064
      3 C         141.9207  140.6987  164.0975 C.ar    1  UNL1       -0.0029
      4 C         141.4814  141.7035  165.1209 C.ar    1  UNL1       -0.0003
      5 C         141.3516  141.3008  166.5600 C.ar    1  UNL1        0.0001
      6 C         141.6612  139.8932  166.9757 C.ar    1  UNL1       -0.0003
      7 C         142.1006  138.8884  165.9524 C.ar    1  UNL1       -0.0029
      8 C         140.9122  142.3057  167.5833 C.2     1  UNL1        0.0047
      9 C         140.7980  141.9071  169.0249 C.2     1  UNL1        0.0598
     10 C         140.3586  142.9119  170.0483 C.2     1  UNL1        0.2679
     11 O         140.1703  142.4943  171.4766 O.2     1  UNL1       -0.2681
     12 N         140.1077  144.3343  169.6435 N.am    1  UNL1       -0.1934
     13 O         139.6683  145.3390  170.6669 O.3     1  UNL1       -0.2949
     14 H         140.2313  144.6084  168.7060 H       1  UNL1        0.1825
     15 H         139.5956  144.9079  171.5328 H       1  UNL1        0.2414
     16 N         141.6666  137.3586  162.8709 N.3     1  UNL1       -0.2935
     17 H         142.1957  136.6388  162.3787 H       1  UNL1        0.1236
     18 C         140.6524  137.8896  161.9016 C.3     1  UNL1        0.0736
     19 C         139.2093  137.9811  162.3010 C.3     1  UNL1        0.0462
     20 C         138.7654  137.4273  165.4862 C.3     1  UNL1        0.0537
     21 C         138.5718  138.7385  164.7839 C.ar    1  UNL1        0.0768
     22 N         138.1402  140.0255  165.4224 N.ar    1  UNL1       -0.1698
     23 N         138.0776  141.0754  164.3529 N.ar    1  UNL1       -0.2288
     24 C         137.7136  142.5299  164.3944 C.ar    1  UNL1        0.1003
     25 C         137.7424  143.3464  163.1365 C.ar    1  UNL1        0.0207
     26 C         138.1353  142.7084  161.8370 C.ar    1  UNL1        0.0031
     27 C         138.4993  141.2538  161.7955 C.ar    1  UNL1        0.0189
     28 C         138.4704  140.4373  163.0534 C.ar    1  UNL1        0.0801
     29 C         138.7759  138.9931  163.3198 C.ar    1  UNL1        0.0121
@<TRIPOS>BOND
     1    20    21    1
     2    21    22   ar
     3    22    23   ar
     4    23    24   ar
     5    24    25   ar
     6    25    26   ar
     7    26    27   ar
     8    27    28   ar
     9    28    29   ar
    10    29    19    1
    11    19    18    1
    12    18    16    1
    13    16     1    1
    14     1     2    1
    15     2     3   ar
    16     3     4   ar
    17     4     5   ar
    18     5     8    1
    19     8     9    2
    20     9    10    1
    21    10    11    2
    22    10    12   am
    23    12    13    1
    24     5     6   ar
    25     6     7   ar
    26    29    21   ar
    27     7     2   ar
    28    28    23   ar
    29    16    17    1
    30    12    14    1
    31    13    15    1
@<TRIPOS>MOLECULE
*****
 29 31 0 0 0
SMALL
GASTEIGER

@<TRIPOS>ATOM
      1 C         141.0325  136.9706  164.0893 C.3     1  UNL1        0.0956
      2 C         141.4174  138.0198  165.0899 C.ar    1  UNL1       -0.0064
      3 C         142.8564  138.1983  165.4736 C.ar    1  UNL1       -0.0029
      4 C         143.2412  139.2474  166.4743 C.ar    1  UNL1       -0.0003
      5 C         142.1870  140.1180  167.0912 C.ar    1  UNL1        0.0001
      6 C         140.7479  139.9395  166.7075 C.ar    1  UNL1       -0.0003
      7 C         140.3631  138.8904  165.7069 C.ar    1  UNL1       -0.0029
      8 C         142.5719  141.1672  168.0918 C.2     1  UNL1        0.0047
      9 C         141.5144  142.0171  168.7315 C.2     1  UNL1        0.0598
     10 C         141.8992  143.0663  169.7322 C.2     1  UNL1        0.2679
     11 O         140.9163  144.1322  170.1168 O.2     1  UNL1       -0.2681
     12 N         143.2667  143.0496  170.3483 N.am    1  UNL1       -0.1934
     13 O         143.6514  144.0988  171.3489 O.3     1  UNL1       -0.2949
     14 H         143.9118  142.3501  170.0959 H       1  UNL1        0.1825
     15 H         142.9069  144.7060  171.4831 H       1  UNL1        0.2414
     16 N         141.0173  137.2997  162.6260 N.3     1  UNL1       -0.2935
     17 H         141.9907  137.3468  162.3246 H       1  UNL1        0.1236
     18 C         140.3544  138.5571  162.1469 C.3     1  UNL1        0.0736
     19 C         141.1776  139.6552  161.5414 C.3     1  UNL1        0.0462
     20 C         144.1472  138.4012  161.0329 C.3     1  UNL1        0.0537
     21 C         143.8118  139.5195  161.9746 C.ar    1  UNL1        0.0768
     22 N         144.7825  140.2578  162.8479 N.ar    1  UNL1       -0.1698
     23 N         144.0175  141.2905  163.6214 N.ar    1  UNL1       -0.2288
     24 C         144.4488  142.3090  164.6346 C.ar    1  UNL1        0.1003
     25 C         143.4366  143.2275  165.2525 C.ar    1  UNL1        0.0207
     26 C         141.9931  143.1274  164.8572 C.ar    1  UNL1        0.0031
     27 C         141.5618  142.1089  163.8440 C.ar    1  UNL1        0.0189
     28 C         142.5740  141.1905  163.2261 C.ar    1  UNL1        0.0801
     29 C         142.4469  140.0960  162.2083 C.ar    1  UNL1        0.0121
@<TRIPOS>BOND
     1    20    21    1
     2    21    22   ar
     3    22    23   ar
     4    23    24   ar
     5    24    25   ar
     6    25    26   ar
     7    26    27   ar
     8    27    28   ar
     9    28    29   ar
    10    29    19    1
    11    19    18    1
    12    18    16    1
    13    16     1    1
    14     1     2    1
    15     2     3   ar
    16     3     4   ar
    17     4     5   ar
    18     5     8    1
    19     8     9    2
    20     9    10    1
    21    10    11    2
    22    10    12   am
    23    12    13    1
    24     5     6   ar
    25     6     7   ar
    26    29    21   ar
    27     7     2   ar
    28    28    23   ar
    29    16    17    1
    30    12    14    1
    31    13    15    1
@<TRIPOS>MOLECULE
*****
 29 31 0 0 0
SMALL
GASTEIGER

@<TRIPOS>ATOM
      1 C         141.1068  137.0246  164.2290 C.3     1  UNL1        0.0956
      2 C         141.4486  138.1879  165.1121 C.ar    1  UNL1       -0.0064
      3 C         142.8171  138.2936  165.7171 C.ar    1  UNL1       -0.0029
      4 C         143.1588  139.4570  166.6002 C.ar    1  UNL1       -0.0003
      5 C         142.1322  140.5147  166.8783 C.ar    1  UNL1        0.0001
      6 C         140.7637  140.4090  166.2733 C.ar    1  UNL1       -0.0003
      7 C         140.4218  139.2456  165.3902 C.ar    1  UNL1       -0.0029
      8 C         142.4740  141.6780  167.7614 C.2     1  UNL1        0.0047
      9 C         141.7336  141.8847  169.0494 C.2     1  UNL1        0.0598
     10 C         142.0754  143.0481  169.9325 C.2     1  UNL1        0.2679
     11 O         141.0514  144.1102  170.2034 O.2     1  UNL1       -0.2681
     12 N         143.4410  143.1492  170.5448 N.am    1  UNL1       -0.1934
     13 O         143.7826  144.3126  171.4279 O.3     1  UNL1       -0.2949
     14 H         144.1130  142.4521  170.3670 H       1  UNL1        0.1825
     15 H         143.0151  144.9016  171.4981 H       1  UNL1        0.2414
     16 N         141.4187  137.0790  162.7629 N.3     1  UNL1       -0.2935
     17 H         142.3871  137.3881  162.6791 H       1  UNL1        0.1236
     18 C         140.6051  137.9530  161.8550 C.3     1  UNL1        0.0736
     19 C         141.2201  139.1766  161.2426 C.3     1  UNL1        0.0462
     20 C         139.0763  141.5531  161.8797 C.3     1  UNL1        0.0537
     21 C         140.4889  141.4828  162.3791 C.ar    1  UNL1        0.0768
     22 N         141.1643  142.4926  163.2590 N.ar    1  UNL1       -0.1698
     23 N         142.5671  142.0243  163.5100 N.ar    1  UNL1       -0.2288
     24 C         143.6946  142.6131  164.3049 C.ar    1  UNL1        0.1003
     25 C         145.0138  141.9027  164.3749 C.ar    1  UNL1        0.0207
     26 C         145.2055  140.6035  163.6501 C.ar    1  UNL1        0.0031
     27 C         144.0779  140.0147  162.8552 C.ar    1  UNL1        0.0189
     28 C         142.7587  140.7251  162.7852 C.ar    1  UNL1        0.0801
     29 C         141.4743  140.3905  162.0863 C.ar    1  UNL1        0.0121
@<TRIPOS>BOND
     1    20    21    1
     2    21    22   ar
     3    22    23   ar
     4    23    24   ar
     5    24    25   ar
     6    25    26   ar
     7    26    27   ar
     8    27    28   ar
     9    28    29   ar
    10    29    19    1
    11    19    18    1
    12    18    16    1
    13    16     1    1
    14     1     2    1
    15     2     3   ar
    16     3     4   ar
    17     4     5   ar
    18     5     8    1
    19     8     9    2
    20     9    10    1
    21    10    11    2
    22    10    12   am
    23    12    13    1
    24     5     6   ar
    25     6     7   ar
    26    29    21   ar
    27     7     2   ar
    28    28    23   ar
    29    16    17    1
    30    12    14    1
    31    13    15    1
@<TRIPOS>MOLECULE
*****
 29 31 0 0 0
SMALL
GASTEIGER

@<TRIPOS>ATOM
      1 C         137.4094  142.1838  162.9870 C.3     1  UNL1        0.0956
      2 C         138.2832  142.2968  164.2010 C.ar    1  UNL1       -0.0064
      3 C         138.5366  143.6393  164.8203 C.ar    1  UNL1       -0.0029
      4 C         139.4104  143.7522  166.0343 C.ar    1  UNL1       -0.0003
      5 C         140.0307  142.5228  166.6290 C.ar    1  UNL1        0.0001
      6 C         139.7774  141.1803  166.0096 C.ar    1  UNL1       -0.0003
      7 C         138.9036  141.0673  164.7956 C.ar    1  UNL1       -0.0029
      8 C         140.9045  142.6358  167.8430 C.2     1  UNL1        0.0047
      9 C         140.2854  142.7669  169.2029 C.2     1  UNL1        0.0598
     10 C         141.1591  142.8799  170.4170 C.2     1  UNL1        0.2679
     11 O         140.7602  142.2013  171.6938 O.2     1  UNL1       -0.2681
     12 N         142.4316  143.6715  170.3543 N.am    1  UNL1       -0.1934
     13 O         143.3053  143.7845  171.5684 O.3     1  UNL1       -0.2949
     14 H         142.6935  144.1170  169.5163 H       1  UNL1        0.1825
     15 H         142.9052  143.2913  172.3016 H       1  UNL1        0.2414
     16 N         137.6560  143.0679  161.8006 N.3     1  UNL1       -0.2935
     17 H         136.7469  143.2514  161.3761 H       1  UNL1        0.1236
     18 C         138.5637  142.6082  160.6984 C.3     1  UNL1        0.0736
     19 C         139.9231  143.2225  160.5409 C.3     1  UNL1        0.0462
     20 C         139.8099  146.2909  161.6462 C.3     1  UNL1        0.0537
     21 C         140.5971  145.1652  162.2487 C.ar    1  UNL1        0.0768
     22 N         141.4706  145.2521  163.4651 N.ar    1  UNL1       -0.1698
     23 N         142.0624  143.8955  163.7088 N.ar    1  UNL1       -0.2288
     24 C         142.9980  143.3834  164.7634 C.ar    1  UNL1        0.1003
     25 C         143.4259  141.9458  164.7523 C.ar    1  UNL1        0.0207
     26 C         142.9182  141.0204  163.6866 C.ar    1  UNL1        0.0031
     27 C         141.9826  141.5325  162.6319 C.ar    1  UNL1        0.0189
     28 C         141.5547  142.9701  162.6430 C.ar    1  UNL1        0.0801
     29 C         140.6492  143.7548  161.7407 C.ar    1  UNL1        0.0121
@<TRIPOS>BOND
     1    20    21    1
     2    21    22   ar
     3    22    23   ar
     4    23    24   ar
     5    24    25   ar
     6    25    26   ar
     7    26    27   ar
     8    27    28   ar
     9    28    29   ar
    10    29    19    1
    11    19    18    1
    12    18    16    1
    13    16     1    1
    14     1     2    1
    15     2     3   ar
    16     3     4   ar
    17     4     5   ar
    18     5     8    1
    19     8     9    2
    20     9    10    1
    21    10    11    2
    22    10    12   am
    23    12    13    1
    24     5     6   ar
    25     6     7   ar
    26    29    21   ar
    27     7     2   ar
    28    28    23   ar
    29    16    17    1
    30    12    14    1
    31    13    15    1
@<TRIPOS>MOLECULE
*****
 29 31 0 0 0
SMALL
GASTEIGER

@<TRIPOS>ATOM
      1 C         141.1036  136.9013  164.1724 C.3     1  UNL1        0.0956
      2 C         141.0604  138.0690  165.1130 C.ar    1  UNL1       -0.0064
      3 C         142.3298  138.5947  165.7148 C.ar    1  UNL1       -0.0029
      4 C         142.2864  139.7625  166.6553 C.ar    1  UNL1       -0.0003
      5 C         140.9738  140.4045  166.9940 C.ar    1  UNL1        0.0001
      6 C         139.7044  139.8788  166.3922 C.ar    1  UNL1       -0.0003
      7 C         139.7476  138.7110  165.4517 C.ar    1  UNL1       -0.0029
      8 C         140.9305  141.5722  167.9345 C.2     1  UNL1        0.0047
      9 C         140.2533  141.4379  169.2662 C.2     1  UNL1        0.0598
     10 C         140.2100  142.6056  170.2068 C.2     1  UNL1        0.2679
     11 O         140.3113  142.3808  171.6864 O.2     1  UNL1       -0.2681
     12 N         140.0654  143.9979  169.6679 N.am    1  UNL1       -0.1934
     13 O         140.0221  145.1655  170.6085 O.3     1  UNL1       -0.2949
     14 H         139.9989  144.1454  168.6967 H       1  UNL1        0.1825
     15 H         140.0994  144.8480  171.5218 H       1  UNL1        0.2414
     16 N         141.3310  137.1267  162.7071 N.3     1  UNL1       -0.2935
     17 H         141.5433  136.2165  162.2986 H       1  UNL1        0.1236
     18 C         142.4067  138.0674  162.2511 C.3     1  UNL1        0.0736
     19 C         142.0474  139.4447  161.7774 C.3     1  UNL1        0.0462
     20 C         144.8393  140.6375  162.9739 C.3     1  UNL1        0.0537
     21 C         143.4632  141.1637  163.2557 C.ar    1  UNL1        0.0768
     22 N         143.1288  142.3305  164.1369 N.ar    1  UNL1       -0.1698
     23 N         141.6388  142.5035  164.1315 N.ar    1  UNL1       -0.2288
     24 C         140.7403  143.4892  164.8178 C.ar    1  UNL1        0.1003
     25 C         139.2554  143.4149  164.6196 C.ar    1  UNL1        0.0207
     26 C         138.6689  142.3549  163.7350 C.ar    1  UNL1        0.0031
     27 C         139.5674  141.3691  163.0487 C.ar    1  UNL1        0.0189
     28 C         141.0523  141.4434  163.2470 C.ar    1  UNL1        0.0801
     29 C         142.1799  140.6154  162.7057 C.ar    1  UNL1        0.0121
@<TRIPOS>BOND
     1    20    21    1
     2    21    22   ar
     3    22    23   ar
     4    23    24   ar
     5    24    25   ar
     6    25    26   ar
     7    26    27   ar
     8    27    28   ar
     9    28    29   ar
    10    29    19    1
    11    19    18    1
    12    18    16    1
    13    16     1    1
    14     1     2    1
    15     2     3   ar
    16     3     4   ar
    17     4     5   ar
    18     5     8    1
    19     8     9    2
    20     9    10    1
    21    10    11    2
    22    10    12   am
    23    12    13    1
    24     5     6   ar
    25     6     7   ar
    26    29    21   ar
    27     7     2   ar
    28    28    23   ar
    29    16    17    1
    30    12    14    1
    31    13    15    1
@<TRIPOS>MOLECULE
*****
 29 31 0 0 0
SMALL
GASTEIGER

@<TRIPOS>ATOM
      1 C         138.1169  138.3013  162.0977 C.3     1  UNL1        0.0956
      2 C         138.4721  138.9095  163.4221 C.ar    1  UNL1       -0.0064
      3 C         138.4531  140.3997  163.5924 C.ar    1  UNL1       -0.0029
      4 C         138.8082  141.0078  164.9168 C.ar    1  UNL1       -0.0003
      5 C         139.1824  140.1258  166.0710 C.ar    1  UNL1        0.0001
      6 C         139.2014  138.6356  165.9007 C.ar    1  UNL1       -0.0003
      7 C         138.8462  138.0274  164.5763 C.ar    1  UNL1       -0.0029
      8 C         139.5375  140.7339  167.3954 C.2     1  UNL1        0.0047
      9 C         139.2288  139.9980  168.6654 C.2     1  UNL1        0.0598
     10 C         139.5840  140.6061  169.9899 C.2     1  UNL1        0.2679
     11 O         139.3246  142.0622  170.2402 O.2     1  UNL1       -0.2681
     12 N         140.1984  139.7583  171.0639 N.am    1  UNL1       -0.1934
     13 O         140.5535  140.3665  172.3883 O.3     1  UNL1       -0.2949
     14 H         140.3687  138.8026  170.8996 H       1  UNL1        0.1825
     15 H         140.3224  141.3085  172.3839 H       1  UNL1        0.2414
     16 N         139.1887  137.7026  161.2359 N.3     1  UNL1       -0.2935
     17 H         139.7471  137.0977  161.8382 H       1  UNL1        0.1236
     18 C         140.1498  138.5939  160.5066 C.3     1  UNL1        0.0736
     19 C         141.5384  138.7935  161.0379 C.3     1  UNL1        0.0462
     20 C         141.2995  142.0261  160.6603 C.3     1  UNL1        0.0537
     21 C         141.6859  141.3119  161.9215 C.ar    1  UNL1        0.0768
     22 N         142.0304  141.9582  163.2306 N.ar    1  UNL1       -0.1698
     23 N         142.3531  140.8717  164.2132 N.ar    1  UNL1       -0.2288
     24 C         142.7602  140.9120  165.6563 C.ar    1  UNL1        0.1003
     25 C         143.0223  139.6347  166.3975 C.ar    1  UNL1        0.0207
     26 C         142.8773  138.3169  165.6957 C.ar    1  UNL1        0.0031
     27 C         142.4702  138.2766  164.2526 C.ar    1  UNL1        0.0189
     28 C         142.2080  139.5540  163.5114 C.ar    1  UNL1        0.0801
     29 C         141.7957  139.8261  162.0950 C.ar    1  UNL1        0.0121
@<TRIPOS>BOND
     1    20    21    1
     2    21    22   ar
     3    22    23   ar
     4    23    24   ar
     5    24    25   ar
     6    25    26   ar
     7    26    27   ar
     8    27    28   ar
     9    28    29   ar
    10    29    19    1
    11    19    18    1
    12    18    16    1
    13    16     1    1
    14     1     2    1
    15     2     3   ar
    16     3     4   ar
    17     4     5   ar
    18     5     8    1
    19     8     9    2
    20     9    10    1
    21    10    11    2
    22    10    12   am
    23    12    13    1
    24     5     6   ar
    25     6     7   ar
    26    29    21   ar
    27     7     2   ar
    28    28    23   ar
    29    16    17    1
    30    12    14    1
    31    13    15    1
@<TRIPOS>MOLECULE
*****
 29 31 0 0 0
SMALL
GASTEIGER

@<TRIPOS>ATOM
      1 C         145.5364  141.8721  163.1854 C.3     1  UNL1        0.0956
      2 C         144.6369  141.6242  164.3599 C.ar    1  UNL1       -0.0064
      3 C         144.0567  140.2595  164.5853 C.ar    1  UNL1       -0.0029
      4 C         143.1572  140.0117  165.7599 C.ar    1  UNL1       -0.0003
      5 C         142.8379  141.1285  166.7089 C.ar    1  UNL1        0.0001
      6 C         143.4182  142.4932  166.4835 C.ar    1  UNL1       -0.0003
      7 C         144.3177  142.7411  165.3090 C.ar    1  UNL1       -0.0029
      8 C         141.9384  140.8806  167.8834 C.2     1  UNL1        0.0047
      9 C         142.5061  140.8605  169.2717 C.2     1  UNL1        0.0598
     10 C         141.6066  140.6126  170.4463 C.2     1  UNL1        0.2679
     11 O         141.6771  141.5087  171.6471 O.2     1  UNL1       -0.2681
     12 N         140.6367  139.4687  170.4200 N.am    1  UNL1       -0.1934
     13 O         139.7373  139.2209  171.5946 O.3     1  UNL1       -0.2949
     14 H         140.5904  138.8806  169.6319 H       1  UNL1        0.1825
     15 H         139.9097  139.8856  172.2798 H       1  UNL1        0.2414
     16 N         145.1510  142.8821  162.1456 N.3     1  UNL1       -0.2935
     17 H         145.4963  143.7853  162.4702 H       1  UNL1        0.1236
     18 C         143.7076  143.0744  161.7856 C.3     1  UNL1        0.0736
     19 C         143.0109  144.3553  162.1380 C.3     1  UNL1        0.0462
     20 C         141.4254  145.0550  159.3728 C.3     1  UNL1        0.0537
     21 C         140.7949  144.7901  160.7078 C.ar    1  UNL1        0.0768
     22 N         139.3249  144.8003  161.0062 N.ar    1  UNL1       -0.1698
     23 N         139.1451  144.4849  162.4616 N.ar    1  UNL1       -0.2288
     24 C         137.9197  144.3581  163.3172 C.ar    1  UNL1        0.1003
     25 C         138.0531  144.0261  164.7738 C.ar    1  UNL1        0.0207
     26 C         139.4120  143.8210  165.3750 C.ar    1  UNL1        0.0031
     27 C         140.6375  143.9479  164.5194 C.ar    1  UNL1        0.0189
     28 C         140.5040  144.2799  163.0627 C.ar    1  UNL1        0.0801
     29 C         141.5236  144.4685  161.9788 C.ar    1  UNL1        0.0121
@<TRIPOS>BOND
     1    20    21    1
     2    21    22   ar
     3    22    23   ar
     4    23    24   ar
     5    24    25   ar
     6    25    26   ar
     7    26    27   ar
     8    27    28   ar
     9    28    29   ar
    10    29    19    1
    11    19    18    1
    12    18    16    1
    13    16     1    1
    14     1     2    1
    15     2     3   ar
    16     3     4   ar
    17     4     5   ar
    18     5     8    1
    19     8     9    2
    20     9    10    1
    21    10    11    2
    22    10    12   am
    23    12    13    1
    24     5     6   ar
    25     6     7   ar
    26    29    21   ar
    27     7     2   ar
    28    28    23   ar
    29    16    17    1
    30    12    14    1
    31    13    15    1
@<TRIPOS>MOLECULE
*****
 29 31 0 0 0
SMALL
GASTEIGER

@<TRIPOS>ATOM
      1 C         143.2966  144.6528  163.1926 C.3     1  UNL1        0.0956
      2 C         142.8492  143.8644  164.3877 C.ar    1  UNL1       -0.0064
      3 C         141.3859  143.7065  164.6772 C.ar    1  UNL1       -0.0029
      4 C         140.9387  142.9181  165.8724 C.ar    1  UNL1       -0.0003
      5 C         141.9546  142.2876  166.7781 C.ar    1  UNL1        0.0001
      6 C         143.4179  142.4455  166.4886 C.ar    1  UNL1       -0.0003
      7 C         143.8653  143.2339  165.2935 C.ar    1  UNL1       -0.0029
      8 C         141.5073  141.4992  167.9732 C.2     1  UNL1        0.0047
      9 C         140.9737  142.2084  169.1825 C.2     1  UNL1        0.0598
     10 C         140.5263  141.4201  170.3777 C.2     1  UNL1        0.2679
     11 O         140.5310  142.0526  171.7378 O.2     1  UNL1       -0.2681
     12 N         140.0743  139.9994  170.2128 N.am    1  UNL1       -0.1934
     13 O         139.6269  139.2111  171.4080 O.3     1  UNL1       -0.2949
     14 H         140.0712  139.5842  169.3201 H       1  UNL1        0.1825
     15 H         139.6913  139.7640  172.2025 H       1  UNL1        0.2414
     16 N         143.6108  143.9499  161.9053 N.3     1  UNL1       -0.2935
     17 H         144.0865  144.6268  161.3087 H       1  UNL1        0.1236
     18 C         142.5041  143.3538  161.0869 C.3     1  UNL1        0.0736
     19 C         142.3669  141.8636  160.9831 C.3     1  UNL1        0.0462
     20 C         139.2427  141.3671  161.7846 C.3     1  UNL1        0.0537
     21 C         140.4371  140.8440  162.5262 C.ar    1  UNL1        0.0768
     22 N         140.4051  140.0009  163.7664 N.ar    1  UNL1       -0.1698
     23 N         141.8214  139.7080  164.1645 N.ar    1  UNL1       -0.2288
     24 C         142.4021  138.9239  165.3037 C.ar    1  UNL1        0.1003
     25 C         143.8900  138.8020  165.4488 C.ar    1  UNL1        0.0207
     26 C         144.7973  139.4641  164.4546 C.ar    1  UNL1        0.0031
     27 C         144.2166  140.2482  163.3153 C.ar    1  UNL1        0.0189
     28 C         142.7287  140.3701  163.1703 C.ar    1  UNL1        0.0801
     29 C         141.8731  141.0722  162.1578 C.ar    1  UNL1        0.0121
@<TRIPOS>BOND
     1    20    21    1
     2    21    22   ar
     3    22    23   ar
     4    23    24   ar
     5    24    25   ar
     6    25    26   ar
     7    26    27   ar
     8    27    28   ar
     9    28    29   ar
    10    29    19    1
    11    19    18    1
    12    18    16    1
    13    16     1    1
    14     1     2    1
    15     2     3   ar
    16     3     4   ar
    17     4     5   ar
    18     5     8    1
    19     8     9    2
    20     9    10    1
    21    10    11    2
    22    10    12   am
    23    12    13    1
    24     5     6   ar
    25     6     7   ar
    26    29    21   ar
    27     7     2   ar
    28    28    23   ar
    29    16    17    1
    30    12    14    1
    31    13    15    1
