@<TRIPOS>MOLECULE
*****
 35 36 0 0 0
SMALL
GASTEIGER

@<TRIPOS>ATOM
      1 C         140.4675  144.3327  162.0620 C.3     1  UNL1        0.0427
      2 C         139.1536  143.8538  162.6046 C.3     1  UNL1        0.1971
      3 O         138.5624  143.9155  161.2275 O.3     1  UNL1       -0.3751
      4 H         138.3452  143.0187  160.9284 H       1  UNL1        0.2110
      5 C         139.7449  143.7922  163.9818 C.2     1  UNL1        0.2539
      6 O         139.4260  144.8622  164.9835 O.2     1  UNL1       -0.2721
      7 N         140.6550  142.6604  164.3573 N.am    1  UNL1       -0.2819
      8 H         140.8643  141.9582  163.6999 H       1  UNL1        0.1549
      9 C         141.2462  142.5988  165.7345 C.ar    1  UNL1        0.0507
     10 C         142.7178  142.3664  165.9092 C.ar    1  UNL1        0.0210
     11 C         143.3091  142.3047  167.2864 C.ar    1  UNL1        0.0765
     12 C         142.4288  142.4754  168.4888 C.ar    1  UNL1        0.2939
     13 C         140.9572  142.7077  168.3141 C.ar    1  UNL1        0.1417
     14 C         140.3659  142.7694  166.9369 C.ar    1  UNL1        0.0247
     15 C         140.0769  142.8784  169.5166 C.3     1  UNL1        0.4243
     16 F         139.1966  143.0491  170.7191 F       1  UNL1       -0.1656
     17 F         139.8463  141.3968  169.5581 F       1  UNL1       -0.1656
     18 F         140.3075  144.3600  169.4752 F       1  UNL1       -0.1656
     19 N         143.0200  142.4137  169.8660 N.pl3   1  UNL1        0.0809
     20 O         143.0810  143.6508  170.7121 O.2     1  UNL1        0.0415
     21 O         143.5502  141.1149  170.3971 O.co2   1  UNL1       -0.5760
     22 C         137.8397  143.3750  163.1473 C.3     1  UNL1        0.2408
     23 O         137.2682  142.0680  162.6835 O.3     1  UNL1       -0.4724
     24 C         137.7725  140.7804  163.2649 C.ar    1  UNL1        0.1395
     25 C         137.9882  139.5905  162.3775 C.ar    1  UNL1        0.0369
     26 C         138.4925  138.3030  162.9589 C.ar    1  UNL1        0.0039
     27 C         138.7809  138.2054  164.4277 C.ar    1  UNL1        0.0152
     28 C         138.5651  139.3954  165.3151 C.ar    1  UNL1        0.1258
     29 C         138.0609  140.6829  164.7337 C.ar    1  UNL1        0.0518
     30 S         138.8535  139.2978  166.7839 S.3     1  UNL1        0.3127
     31 F         139.9572  139.6277  165.8231 F       1  UNL1       -0.0934
     32 F         140.2456  139.5302  167.2919 F       1  UNL1       -0.0934
     33 F         137.7499  138.9679  167.7446 F       1  UNL1       -0.0934
     34 F         139.1420  139.2002  168.2526 F       1  UNL1       -0.0934
     35 F         137.4615  139.0654  166.2758 F       1  UNL1       -0.0934
@<TRIPOS>UNITY_ATOM_ATTR
19 1
charge 1
21 1
charge -1
@<TRIPOS>BOND
     1     1     2    1
     2     2     3    1
     3     2    22    1
     4    22    23    1
     5    23    24    1
     6    24    25   ar
     7    25    26   ar
     8    26    27   ar
     9    27    28   ar
    10    28    30    1
    11    30    31    1
    12    30    32    1
    13    30    33    1
    14    30    34    1
    15    30    35    1
    16    28    29   ar
    17     2     5    1
    18     5     6    2
    19     5     7   am
    20     7     9    1
    21     9    10   ar
    22    10    11   ar
    23    11    12   ar
    24    12    19    1
    25    19    20    2
    26    19    21    1
    27    12    13   ar
    28    13    15    1
    29    15    16    1
    30    15    17    1
    31    15    18    1
    32    13    14   ar
    33    29    24   ar
    34    14     9   ar
    35     3     4    1
    36     7     8    1
@<TRIPOS>MOLECULE
*****
 35 36 0 0 0
SMALL
GASTEIGER

@<TRIPOS>ATOM
      1 C         145.3145  139.9268  164.3476 C.3     1  UNL1        0.0427
      2 C         144.0602  139.2143  163.9364 C.3     1  UNL1        0.1971
      3 O         144.6523  138.9529  162.5833 O.3     1  UNL1       -0.3751
      4 H         144.7907  137.9996  162.4695 H       1  UNL1        0.2110
      5 C         143.4681  139.4756  165.2896 C.2     1  UNL1        0.2539
      6 O         143.5681  138.4353  166.3656 O.2     1  UNL1       -0.2721
      7 N         142.7760  140.7772  165.5668 N.am    1  UNL1       -0.2819
      8 H         142.7104  141.4600  164.8605 H       1  UNL1        0.1549
      9 C         142.1839  141.0386  166.9199 C.ar    1  UNL1        0.0507
     10 C         140.8692  140.4214  167.2953 C.ar    1  UNL1        0.0210
     11 C         140.2771  140.6828  168.6484 C.ar    1  UNL1        0.0765
     12 C         140.9996  141.5612  169.6263 C.ar    1  UNL1        0.2939
     13 C         142.3142  142.1784  169.2510 C.ar    1  UNL1        0.1417
     14 C         142.9064  141.9171  167.8978 C.ar    1  UNL1        0.0247
     15 C         143.0368  143.0569  170.2289 C.3     1  UNL1        0.4243
     16 F         143.7593  143.9353  171.2068 F       1  UNL1       -0.1656
     17 F         141.9382  144.0732  170.1275 F       1  UNL1       -0.1656
     18 F         144.1353  142.0405  170.3303 F       1  UNL1       -0.1656
     19 N         140.4075  141.8226  170.9795 N.pl3   1  UNL1        0.0809
     20 O         139.4947  142.9950  171.1850 O.2     1  UNL1        0.0415
     21 O         140.7282  140.9115  172.1272 O.co2   1  UNL1       -0.5760
     22 C         142.8059  138.5017  163.5253 C.3     1  UNL1        0.2408
     23 O         141.7378  139.2376  162.7720 O.3     1  UNL1       -0.4724
     24 C         140.4476  139.5893  163.4515 C.ar    1  UNL1        0.1395
     25 C         139.7407  140.8658  163.1042 C.ar    1  UNL1        0.0369
     26 C         138.4505  141.2175  163.7837 C.ar    1  UNL1        0.0039
     27 C         137.8673  140.2926  164.8105 C.ar    1  UNL1        0.0152
     28 C         138.5742  139.0161  165.1579 C.ar    1  UNL1        0.1258
     29 C         139.8644  138.6644  164.4784 C.ar    1  UNL1        0.0518
     30 S         137.9910  138.0912  166.1848 S.3     1  UNL1        0.3127
     31 F         138.6802  137.5310  164.9760 F       1  UNL1       -0.0934
     32 F         138.0969  136.6061  166.0029 F       1  UNL1       -0.0934
     33 F         137.3018  138.6515  167.3935 F       1  UNL1       -0.0934
     34 F         137.4078  137.1663  167.2116 F       1  UNL1       -0.0934
     35 F         137.8850  139.5763  166.3666 F       1  UNL1       -0.0934
@<TRIPOS>UNITY_ATOM_ATTR
19 1
charge 1
21 1
charge -1
@<TRIPOS>BOND
     1     1     2    1
     2     2     3    1
     3     2    22    1
     4    22    23    1
     5    23    24    1
     6    24    25   ar
     7    25    26   ar
     8    26    27   ar
     9    27    28   ar
    10    28    30    1
    11    30    31    1
    12    30    32    1
    13    30    33    1
    14    30    34    1
    15    30    35    1
    16    28    29   ar
    17     2     5    1
    18     5     6    2
    19     5     7   am
    20     7     9    1
    21     9    10   ar
    22    10    11   ar
    23    11    12   ar
    24    12    19    1
    25    19    20    2
    26    19    21    1
    27    12    13   ar
    28    13    15    1
    29    15    16    1
    30    15    17    1
    31    15    18    1
    32    13    14   ar
    33    29    24   ar
    34    14     9   ar
    35     3     4    1
    36     7     8    1
@<TRIPOS>MOLECULE
*****
 35 36 0 0 0
SMALL
GASTEIGER

@<TRIPOS>ATOM
      1 C         145.9287  141.3886  163.8110 C.3     1  UNL1        0.0427
      2 C         145.0103  142.3973  163.1873 C.3     1  UNL1        0.1971
      3 O         145.7483  142.2658  161.8880 O.3     1  UNL1       -0.3751
      4 H         145.1637  141.8700  161.2228 H       1  UNL1        0.2110
      5 C         144.2723  142.5287  164.4865 C.2     1  UNL1        0.2539
      6 O         144.6624  143.5956  165.4661 O.2     1  UNL1       -0.2721
      7 N         143.1441  141.5932  164.8063 N.am    1  UNL1       -0.2819
      8 H         142.8881  140.8930  164.1634 H       1  UNL1        0.1549
      9 C         142.4062  141.7247  166.1055 C.ar    1  UNL1        0.0507
     10 C         141.1832  142.5892  166.1893 C.ar    1  UNL1        0.0210
     11 C         140.4452  142.7206  167.4885 C.ar    1  UNL1        0.0765
     12 C         140.9302  141.9876  168.7041 C.ar    1  UNL1        0.2939
     13 C         142.1531  141.1231  168.6203 C.ar    1  UNL1        0.1417
     14 C         142.8912  140.9917  167.3210 C.ar    1  UNL1        0.0247
     15 C         142.6381  140.3901  169.8359 C.3     1  UNL1        0.4243
     16 F         143.1231  139.6571  171.0514 F       1  UNL1       -0.1656
     17 F         141.6390  139.3014  169.5779 F       1  UNL1       -0.1656
     18 F         143.6371  141.4789  170.0938 F       1  UNL1       -0.1656
     19 N         140.1922  142.1191  170.0033 N.pl3   1  UNL1        0.0809
     20 O         139.0751  141.1730  170.3304 O.2     1  UNL1        0.0415
     21 O         140.5713  143.1966  170.9755 O.co2   1  UNL1       -0.5760
     22 C         144.0918  143.4060  162.5636 C.3     1  UNL1        0.2408
     23 O         142.8014  142.9615  161.9412 O.3     1  UNL1       -0.4724
     24 C         141.5961  143.8528  161.9961 C.ar    1  UNL1        0.1395
     25 C         141.3804  144.8888  160.9330 C.ar    1  UNL1        0.0369
     26 C         140.1751  145.7799  160.9879 C.ar    1  UNL1        0.0039
     27 C         139.1856  145.6351  162.1059 C.ar    1  UNL1        0.0152
     28 C         139.4013  144.5991  163.1689 C.ar    1  UNL1        0.1258
     29 C         140.6065  143.7079  163.1140 C.ar    1  UNL1        0.0518
     30 S         138.4117  144.4543  164.2868 S.3     1  UNL1        0.3127
     31 F         139.6038  145.3495  164.4518 F       1  UNL1       -0.0934
     32 F         138.6143  145.2047  165.5697 F       1  UNL1       -0.0934
     33 F         137.2196  143.5590  164.1219 F       1  UNL1       -0.0934
     34 F         137.4221  144.3095  165.4048 F       1  UNL1       -0.0934
     35 F         138.2091  143.7038  163.0040 F       1  UNL1       -0.0934
@<TRIPOS>UNITY_ATOM_ATTR
19 1
charge 1
21 1
charge -1
@<TRIPOS>BOND
     1     1     2    1
     2     2     3    1
     3     2    22    1
     4    22    23    1
     5    23    24    1
     6    24    25   ar
     7    25    26   ar
     8    26    27   ar
     9    27    28   ar
    10    28    30    1
    11    30    31    1
    12    30    32    1
    13    30    33    1
    14    30    34    1
    15    30    35    1
    16    28    29   ar
    17     2     5    1
    18     5     6    2
    19     5     7   am
    20     7     9    1
    21     9    10   ar
    22    10    11   ar
    23    11    12   ar
    24    12    19    1
    25    19    20    2
    26    19    21    1
    27    12    13   ar
    28    13    15    1
    29    15    16    1
    30    15    17    1
    31    15    18    1
    32    13    14   ar
    33    29    24   ar
    34    14     9   ar
    35     3     4    1
    36     7     8    1
@<TRIPOS>MOLECULE
*****
 35 36 0 0 0
SMALL
GASTEIGER

@<TRIPOS>ATOM
      1 C         139.7581  137.2619  164.2726 C.3     1  UNL1        0.0427
      2 C         138.9211  138.4170  163.8089 C.3     1  UNL1        0.1971
      3 O         138.6897  137.7236  162.4992 O.3     1  UNL1       -0.3751
      4 H         137.7517  137.4899  162.4184 H       1  UNL1        0.2110
      5 C         139.1526  139.1105  165.1187 C.2     1  UNL1        0.2539
      6 O         138.0854  139.0982  166.1727 O.2     1  UNL1       -0.2721
      7 N         140.4513  139.8162  165.3745 N.am    1  UNL1       -0.2819
      8 H         141.1518  139.8242  164.6827 H       1  UNL1        0.1549
      9 C         140.6827  140.5096  166.6843 C.ar    1  UNL1        0.0507
     10 C         140.0543  141.8462  166.9466 C.ar    1  UNL1        0.0210
     11 C         140.2857  142.5396  168.2564 C.ar    1  UNL1        0.0765
     12 C         141.1456  141.8966  169.3038 C.ar    1  UNL1        0.2939
     13 C         141.7741  140.5602  169.0415 C.ar    1  UNL1        0.1417
     14 C         141.5427  139.8666  167.7317 C.ar    1  UNL1        0.0247
     15 C         142.6340  139.9172  170.0889 C.3     1  UNL1        0.4243
     16 F         143.4939  139.2742  171.1363 F       1  UNL1       -0.1656
     17 F         143.6987  140.9455  169.8461 F       1  UNL1       -0.1656
     18 F         141.5693  138.8888  170.3317 F       1  UNL1       -0.1656
     19 N         141.3771  142.5901  170.6136 N.pl3   1  UNL1        0.0809
     20 O         140.5753  142.2010  171.8202 O.2     1  UNL1        0.0415
     21 O         142.4103  143.6726  170.7168 O.co2   1  UNL1       -0.5760
     22 C         138.0841  139.5722  163.3453 C.3     1  UNL1        0.2408
     23 O         138.7254  140.7227  162.6275 O.3     1  UNL1       -0.4724
     24 C         138.8765  142.0464  163.3167 C.ar    1  UNL1        0.1395
     25 C         137.7101  142.6538  164.0382 C.ar    1  UNL1        0.0369
     26 C         137.8613  143.9775  164.7273 C.ar    1  UNL1        0.0039
     27 C         139.1789  144.6937  164.6951 C.ar    1  UNL1        0.0152
     28 C         140.3453  144.0863  163.9737 C.ar    1  UNL1        0.1258
     29 C         140.1941  142.7626  163.2845 C.ar    1  UNL1        0.0518
     30 S         141.6628  144.8025  163.9414 S.3     1  UNL1        0.3127
     31 F         141.5336  143.5027  164.6789 F       1  UNL1       -0.0934
     32 F         142.8511  144.2190  164.6466 F       1  UNL1       -0.0934
     33 F         141.7921  146.1022  163.2040 F       1  UNL1       -0.0934
     34 F         142.9804  145.5187  163.9092 F       1  UNL1       -0.0934
     35 F         140.4745  145.3860  163.2362 F       1  UNL1       -0.0934
@<TRIPOS>UNITY_ATOM_ATTR
19 1
charge 1
21 1
charge -1
@<TRIPOS>BOND
     1     1     2    1
     2     2     3    1
     3     2    22    1
     4    22    23    1
     5    23    24    1
     6    24    25   ar
     7    25    26   ar
     8    26    27   ar
     9    27    28   ar
    10    28    30    1
    11    30    31    1
    12    30    32    1
    13    30    33    1
    14    30    34    1
    15    30    35    1
    16    28    29   ar
    17     2     5    1
    18     5     6    2
    19     5     7   am
    20     7     9    1
    21     9    10   ar
    22    10    11   ar
    23    11    12   ar
    24    12    19    1
    25    19    20    2
    26    19    21    1
    27    12    13   ar
    28    13    15    1
    29    15    16    1
    30    15    17    1
    31    15    18    1
    32    13    14   ar
    33    29    24   ar
    34    14     9   ar
    35     3     4    1
    36     7     8    1
@<TRIPOS>MOLECULE
*****
 35 36 0 0 0
SMALL
GASTEIGER

@<TRIPOS>ATOM
      1 C         137.7922  144.3026  162.9841 C.3     1  UNL1        0.0427
      2 C         138.6561  143.1687  162.5173 C.3     1  UNL1        0.1971
      3 O         138.0338  143.2554  161.1552 O.3     1  UNL1       -0.3751
      4 H         138.7014  143.5414  160.5123 H       1  UNL1        0.2110
      5 C         139.2784  143.0820  163.8793 C.2     1  UNL1        0.2539
      6 O         138.6237  143.7581  165.0474 O.2     1  UNL1       -0.2721
      7 N         140.5554  142.3193  164.0733 N.am    1  UNL1       -0.2819
      8 H         140.9850  141.8756  163.3067 H       1  UNL1        0.1549
      9 C         141.1777  142.2327  165.4354 C.ar    1  UNL1        0.0507
     10 C         142.6404  142.5150  165.6110 C.ar    1  UNL1        0.0210
     11 C         143.2627  142.4284  166.9731 C.ar    1  UNL1        0.0765
     12 C         142.4223  142.0594  168.1595 C.ar    1  UNL1        0.2939
     13 C         140.9597  141.7770  167.9839 C.ar    1  UNL1        0.1417
     14 C         140.3373  141.8636  166.6218 C.ar    1  UNL1        0.0247
     15 C         140.1193  141.4080  169.1703 C.3     1  UNL1        0.4243
     16 F         139.2790  141.0389  170.3568 F       1  UNL1       -0.1656
     17 F         140.2813  139.9553  168.8332 F       1  UNL1       -0.1656
     18 F         139.9574  142.8606  169.5074 F       1  UNL1       -0.1656
     19 N         143.0446  141.9727  169.5215 N.pl3   1  UNL1        0.0809
     20 O         143.2711  143.2200  170.3234 O.2     1  UNL1        0.0415
     21 O         143.4405  140.6387  170.0818 O.co2   1  UNL1       -0.5760
     22 C         139.5200  142.0348  162.0504 C.3     1  UNL1        0.2408
     23 O         138.9311  140.6666  161.8738 O.3     1  UNL1       -0.4724
     24 C         139.2776  139.5707  162.8376 C.ar    1  UNL1        0.1395
     25 C         140.4209  138.6458  162.5422 C.ar    1  UNL1        0.0369
     26 C         140.7673  137.5499  163.5060 C.ar    1  UNL1        0.0039
     27 C         139.9705  137.3790  164.7653 C.ar    1  UNL1        0.0152
     28 C         138.8272  138.3039  165.0608 C.ar    1  UNL1        0.1258
     29 C         138.4807  139.3998  164.0969 C.ar    1  UNL1        0.0518
     30 S         138.0303  138.1330  166.3201 S.3     1  UNL1        0.3127
     31 F         138.4643  139.5020  165.8871 F       1  UNL1       -0.0934
     32 F         137.6675  139.3311  167.1464 F       1  UNL1       -0.0934
     33 F         137.5964  136.7640  166.7530 F       1  UNL1       -0.0934
     34 F         137.2335  137.9621  167.5794 F       1  UNL1       -0.0934
     35 F         138.3932  136.9349  165.4937 F       1  UNL1       -0.0934
@<TRIPOS>UNITY_ATOM_ATTR
19 1
charge 1
21 1
charge -1
@<TRIPOS>BOND
     1     1     2    1
     2     2     3    1
     3     2    22    1
     4    22    23    1
     5    23    24    1
     6    24    25   ar
     7    25    26   ar
     8    26    27   ar
     9    27    28   ar
    10    28    30    1
    11    30    31    1
    12    30    32    1
    13    30    33    1
    14    30    34    1
    15    30    35    1
    16    28    29   ar
    17     2     5    1
    18     5     6    2
    19     5     7   am
    20     7     9    1
    21     9    10   ar
    22    10    11   ar
    23    11    12   ar
    24    12    19    1
    25    19    20    2
    26    19    21    1
    27    12    13   ar
    28    13    15    1
    29    15    16    1
    30    15    17    1
    31    15    18    1
    32    13    14   ar
    33    29    24   ar
    34    14     9   ar
    35     3     4    1
    36     7     8    1
@<TRIPOS>MOLECULE
*****
 35 36 0 0 0
SMALL
GASTEIGER

@<TRIPOS>ATOM
      1 C         138.0537  144.3434  163.2853 C.3     1  UNL1        0.0427
      2 C         138.3050  142.9491  162.7927 C.3     1  UNL1        0.1971
      3 O         137.5863  143.2706  161.5160 O.3     1  UNL1       -0.3751
      4 H         138.2142  143.2486  160.7770 H       1  UNL1        0.2110
      5 C         139.0238  142.6276  164.0694 C.2     1  UNL1        0.2539
      6 O         138.4322  141.6452  165.0362 O.2     1  UNL1       -0.2721
      7 N         140.3342  143.2886  164.3793 N.am    1  UNL1       -0.2819
      8 H         140.7225  143.9335  163.7447 H       1  UNL1        0.1549
      9 C         141.0530  142.9671  165.6559 C.ar    1  UNL1        0.0507
     10 C         142.5085  142.6054  165.6266 C.ar    1  UNL1        0.0210
     11 C         143.2272  142.2839  166.9033 C.ar    1  UNL1        0.0765
     12 C         142.4906  142.3241  168.2094 C.ar    1  UNL1        0.2939
     13 C         141.0352  142.6859  168.2387 C.ar    1  UNL1        0.1417
     14 C         140.3164  143.0074  166.9620 C.ar    1  UNL1        0.0247
     15 C         140.2986  142.7261  169.5448 C.3     1  UNL1        0.4243
     16 F         139.5620  142.7664  170.8508 F       1  UNL1       -0.1656
     17 F         140.6934  144.1622  169.7232 F       1  UNL1       -0.1656
     18 F         139.9038  141.2901  169.3664 F       1  UNL1       -0.1656
     19 N         143.2094  142.0026  169.4860 N.pl3   1  UNL1        0.0809
     20 O         143.8741  143.0963  170.2684 O.2     1  UNL1        0.0415
     21 O         143.2635  140.5874  169.9804 O.co2   1  UNL1       -0.5760
     22 C         138.5565  141.5548  162.3001 C.3     1  UNL1        0.2408
     23 O         139.9583  141.0262  162.2279 O.3     1  UNL1       -0.4724
     24 C         140.3293  139.7798  162.9756 C.ar    1  UNL1        0.1395
     25 C         139.6846  138.4727  162.6212 C.ar    1  UNL1        0.0369
     26 C         140.0556  137.2263  163.3689 C.ar    1  UNL1        0.0039
     27 C         141.0714  137.2872  164.4709 C.ar    1  UNL1        0.0152
     28 C         141.7162  138.5943  164.8252 C.ar    1  UNL1        0.1258
     29 C         141.3452  139.8406  164.0776 C.ar    1  UNL1        0.0518
     30 S         142.7320  138.6551  165.9273 S.3     1  UNL1        0.3127
     31 F         143.1532  138.2733  164.5392 F       1  UNL1       -0.0934
     32 F         144.1690  138.3342  165.6412 F       1  UNL1       -0.0934
     33 F         142.3108  139.0368  167.3153 F       1  UNL1       -0.0934
     34 F         143.7478  138.7159  167.0293 F       1  UNL1       -0.0934
     35 F         141.2950  138.9760  166.2133 F       1  UNL1       -0.0934
@<TRIPOS>UNITY_ATOM_ATTR
19 1
charge 1
21 1
charge -1
@<TRIPOS>BOND
     1     1     2    1
     2     2     3    1
     3     2    22    1
     4    22    23    1
     5    23    24    1
     6    24    25   ar
     7    25    26   ar
     8    26    27   ar
     9    27    28   ar
    10    28    30    1
    11    30    31    1
    12    30    32    1
    13    30    33    1
    14    30    34    1
    15    30    35    1
    16    28    29   ar
    17     2     5    1
    18     5     6    2
    19     5     7   am
    20     7     9    1
    21     9    10   ar
    22    10    11   ar
    23    11    12   ar
    24    12    19    1
    25    19    20    2
    26    19    21    1
    27    12    13   ar
    28    13    15    1
    29    15    16    1
    30    15    17    1
    31    15    18    1
    32    13    14   ar
    33    29    24   ar
    34    14     9   ar
    35     3     4    1
    36     7     8    1
@<TRIPOS>MOLECULE
*****
 35 36 0 0 0
SMALL
GASTEIGER

@<TRIPOS>ATOM
      1 C         145.7528  141.3233  163.8039 C.3     1  UNL1        0.0427
      2 C         144.8162  142.4548  163.4996 C.3     1  UNL1        0.1971
      3 O         145.4182  142.5852  162.1319 O.3     1  UNL1       -0.3751
      4 H         144.7569  142.3465  161.4636 H       1  UNL1        0.2110
      5 C         144.2143  142.3244  164.8673 C.2     1  UNL1        0.2539
      6 O         144.4025  143.4178  165.8769 O.2     1  UNL1       -0.2721
      7 N         143.4242  141.1007  165.2255 N.am    1  UNL1       -0.2819
      8 H         143.3007  140.3831  164.5629 H       1  UNL1        0.1549
      9 C         142.8223  140.9703  166.5932 C.ar    1  UNL1        0.0507
     10 C         142.7704  139.6302  167.2652 C.ar    1  UNL1        0.0210
     11 C         142.1685  139.4998  168.6329 C.ar    1  UNL1        0.0765
     12 C         141.6184  140.7095  169.3287 C.ar    1  UNL1        0.2939
     13 C         141.6703  142.0496  168.6568 C.ar    1  UNL1        0.1417
     14 C         142.2722  142.1800  167.2890 C.ar    1  UNL1        0.0247
     15 C         141.1202  143.2593  169.3525 C.3     1  UNL1        0.4243
     16 F         140.5702  144.4690  170.0483 F       1  UNL1       -0.1656
     17 F         142.4341  143.4561  170.0489 F       1  UNL1       -0.1656
     18 F         139.8064  143.0624  168.6562 F       1  UNL1       -0.1656
     19 N         141.0165  140.5792  170.6964 N.pl3   1  UNL1        0.0809
     20 O         139.7079  139.8682  170.8752 O.2     1  UNL1        0.0415
     21 O         141.7232  141.1598  171.8853 O.co2   1  UNL1       -0.5760
     22 C         143.8796  143.5863  163.1953 C.3     1  UNL1        0.2408
     23 O         142.5481  143.3084  162.5630 O.3     1  UNL1       -0.4724
     24 C         141.2944  143.4070  163.3807 C.ar    1  UNL1        0.1395
     25 C         140.7766  144.7506  163.8007 C.ar    1  UNL1        0.0369
     26 C         139.5229  144.8492  164.6183 C.ar    1  UNL1        0.0039
     27 C         138.7870  143.6041  165.0158 C.ar    1  UNL1        0.0152
     28 C         139.3047  142.2604  164.5958 C.ar    1  UNL1        0.1258
     29 C         140.5584  142.1619  163.7782 C.ar    1  UNL1        0.0518
     30 S         138.5688  141.0153  164.9933 S.3     1  UNL1        0.3127
     31 F         139.5460  141.6440  165.9418 F       1  UNL1       -0.0934
     32 F         138.8100  140.3989  166.3393 F       1  UNL1       -0.0934
     33 F         137.5915  140.3865  164.0448 F       1  UNL1       -0.0934
     34 F         137.8328  139.7702  165.3909 F       1  UNL1       -0.0934
     35 F         138.3275  141.6317  163.6473 F       1  UNL1       -0.0934
@<TRIPOS>UNITY_ATOM_ATTR
19 1
charge 1
21 1
charge -1
@<TRIPOS>BOND
     1     1     2    1
     2     2     3    1
     3     2    22    1
     4    22    23    1
     5    23    24    1
     6    24    25   ar
     7    25    26   ar
     8    26    27   ar
     9    27    28   ar
    10    28    30    1
    11    30    31    1
    12    30    32    1
    13    30    33    1
    14    30    34    1
    15    30    35    1
    16    28    29   ar
    17     2     5    1
    18     5     6    2
    19     5     7   am
    20     7     9    1
    21     9    10   ar
    22    10    11   ar
    23    11    12   ar
    24    12    19    1
    25    19    20    2
    26    19    21    1
    27    12    13   ar
    28    13    15    1
    29    15    16    1
    30    15    17    1
    31    15    18    1
    32    13    14   ar
    33    29    24   ar
    34    14     9   ar
    35     3     4    1
    36     7     8    1
@<TRIPOS>MOLECULE
*****
 35 36 0 0 0
SMALL
GASTEIGER

@<TRIPOS>ATOM
      1 C         145.3643  140.4098  163.7093 C.3     1  UNL1        0.0427
      2 C         144.0145  140.0258  163.1797 C.3     1  UNL1        0.1971
      3 O         144.6172  139.7681  161.8305 O.3     1  UNL1       -0.3751
      4 H         144.5576  138.8219  161.6252 H       1  UNL1        0.2110
      5 C         143.4118  140.2836  164.5288 C.2     1  UNL1        0.2539
      6 O         143.7544  141.5383  165.2760 O.2     1  UNL1       -0.2721
      7 N         142.4663  139.2866  165.1308 N.am    1  UNL1       -0.2819
      8 H         142.2414  138.4631  164.6404 H       1  UNL1        0.1549
      9 C         141.8636  139.5444  166.4799 C.ar    1  UNL1        0.0507
     10 C         140.4187  139.9309  166.5944 C.ar    1  UNL1        0.0210
     11 C         139.8160  140.1886  167.9436 C.ar    1  UNL1        0.0765
     12 C         140.6580  140.0599  169.1782 C.ar    1  UNL1        0.2939
     13 C         142.1028  139.6735  169.0638 C.ar    1  UNL1        0.1417
     14 C         142.7056  139.4157  167.7146 C.ar    1  UNL1        0.0247
     15 C         142.9449  139.5448  170.2984 C.3     1  UNL1        0.4243
     16 F         143.7869  139.4161  171.5331 F       1  UNL1       -0.1656
     17 F         143.3423  140.9861  170.1776 F       1  UNL1       -0.1656
     18 F         142.5475  138.1034  170.4192 F       1  UNL1       -0.1656
     19 N         140.0553  140.3177  170.5274 N.pl3   1  UNL1        0.0809
     20 O         139.1709  139.2864  171.1632 O.2     1  UNL1        0.0415
     21 O         140.3369  141.6069  171.2408 O.co2   1  UNL1       -0.5760
     22 C         142.6646  139.6418  162.6500 C.3     1  UNL1        0.2408
     23 O         141.7209  140.7011  162.1631 O.3     1  UNL1       -0.4724
     24 C         140.4328  140.9499  162.8905 C.ar    1  UNL1        0.1395
     25 C         139.3594  139.9022  162.8948 C.ar    1  UNL1        0.0369
     26 C         138.0715  140.1510  163.6222 C.ar    1  UNL1        0.0039
     27 C         137.8568  141.4476  164.3452 C.ar    1  UNL1        0.0152
     28 C         138.9301  142.4954  164.3409 C.ar    1  UNL1        0.1258
     29 C         140.2181  142.2465  163.6135 C.ar    1  UNL1        0.0518
     30 S         138.7155  143.7920  165.0639 S.3     1  UNL1        0.3127
     31 F         137.8160  143.4099  163.9260 F       1  UNL1       -0.0934
     32 F         137.6013  144.7065  164.6490 F       1  UNL1       -0.0934
     33 F         139.6150  144.1740  166.2018 F       1  UNL1       -0.0934
     34 F         138.5008  145.0886  165.7869 F       1  UNL1       -0.0934
     35 F         139.8297  142.8774  165.4787 F       1  UNL1       -0.0934
@<TRIPOS>UNITY_ATOM_ATTR
19 1
charge 1
21 1
charge -1
@<TRIPOS>BOND
     1     1     2    1
     2     2     3    1
     3     2    22    1
     4    22    23    1
     5    23    24    1
     6    24    25   ar
     7    25    26   ar
     8    26    27   ar
     9    27    28   ar
    10    28    30    1
    11    30    31    1
    12    30    32    1
    13    30    33    1
    14    30    34    1
    15    30    35    1
    16    28    29   ar
    17     2     5    1
    18     5     6    2
    19     5     7   am
    20     7     9    1
    21     9    10   ar
    22    10    11   ar
    23    11    12   ar
    24    12    19    1
    25    19    20    2
    26    19    21    1
    27    12    13   ar
    28    13    15    1
    29    15    16    1
    30    15    17    1
    31    15    18    1
    32    13    14   ar
    33    29    24   ar
    34    14     9   ar
    35     3     4    1
    36     7     8    1
@<TRIPOS>MOLECULE
*****
 35 36 0 0 0
SMALL
GASTEIGER

@<TRIPOS>ATOM
      1 C         145.0942  140.5164  164.0261 C.3     1  UNL1        0.0427
      2 C         144.0637  139.4769  163.6985 C.3     1  UNL1        0.1971
      3 O         144.6821  139.2907  162.3446 O.3     1  UNL1       -0.3751
      4 H         145.0632  138.4008  162.2829 H       1  UNL1        0.2110
      5 C         143.4453  139.6632  165.0523 C.2     1  UNL1        0.2539
      6 O         143.4653  138.5405  166.0468 O.2     1  UNL1       -0.2721
      7 N         142.8069  140.9722  165.4116 N.am    1  UNL1       -0.2819
      8 H         142.7938  141.7091  164.7588 H       1  UNL1        0.1549
      9 C         142.1886  141.1585  166.7654 C.ar    1  UNL1        0.0507
     10 C         140.8866  140.4896  167.0938 C.ar    1  UNL1        0.0210
     11 C         140.2683  140.6759  168.4476 C.ar    1  UNL1        0.0765
     12 C         140.9517  141.5310  169.4731 C.ar    1  UNL1        0.2939
     13 C         142.2536  142.1998  169.1448 C.ar    1  UNL1        0.1417
     14 C         142.8720  142.0136  167.7909 C.ar    1  UNL1        0.0247
     15 C         142.9370  143.0549  170.1703 C.3     1  UNL1        0.4243
     16 F         143.6205  143.9100  171.1958 F       1  UNL1       -0.1656
     17 F         141.8092  144.0413  170.0994 F       1  UNL1       -0.1656
     18 F         144.0648  142.0684  170.2412 F       1  UNL1       -0.1656
     19 N         140.3333  141.7172  170.8269 N.pl3   1  UNL1        0.0809
     20 O         139.2594  142.7454  171.0259 O.2     1  UNL1        0.0415
     21 O         140.7889  140.8753  171.9818 O.co2   1  UNL1       -0.5760
     22 C         143.0331  138.4373  163.3708 C.3     1  UNL1        0.2408
     23 O         141.7824  138.8255  162.6394 O.3     1  UNL1       -0.4724
     24 C         140.5307  139.1349  163.4059 C.ar    1  UNL1        0.1395
     25 C         139.9426  138.1081  164.3277 C.ar    1  UNL1        0.0369
     26 C         138.6909  138.4174  165.0942 C.ar    1  UNL1        0.0039
     27 C         138.0273  139.7536  164.9388 C.ar    1  UNL1        0.0152
     28 C         138.6153  140.7805  164.0170 C.ar    1  UNL1        0.1258
     29 C         139.8670  140.4711  163.2505 C.ar    1  UNL1        0.0518
     30 S         137.9517  142.1167  163.8616 S.3     1  UNL1        0.3127
     31 F         138.5679  141.7334  165.1744 F       1  UNL1       -0.0934
     32 F         137.9042  143.0696  165.0190 F       1  UNL1       -0.0934
     33 F         137.3355  142.4999  162.5489 F       1  UNL1       -0.0934
     34 F         137.2880  143.4529  163.7063 F       1  UNL1       -0.0934
     35 F         137.9991  141.1637  162.7043 F       1  UNL1       -0.0934
@<TRIPOS>UNITY_ATOM_ATTR
19 1
charge 1
21 1
charge -1
@<TRIPOS>BOND
     1     1     2    1
     2     2     3    1
     3     2    22    1
     4    22    23    1
     5    23    24    1
     6    24    25   ar
     7    25    26   ar
     8    26    27   ar
     9    27    28   ar
    10    28    30    1
    11    30    31    1
    12    30    32    1
    13    30    33    1
    14    30    34    1
    15    30    35    1
    16    28    29   ar
    17     2     5    1
    18     5     6    2
    19     5     7   am
    20     7     9    1
    21     9    10   ar
    22    10    11   ar
    23    11    12   ar
    24    12    19    1
    25    19    20    2
    26    19    21    1
    27    12    13   ar
    28    13    15    1
    29    15    16    1
    30    15    17    1
    31    15    18    1
    32    13    14   ar
    33    29    24   ar
    34    14     9   ar
    35     3     4    1
    36     7     8    1
