@<TRIPOS>MOLECULE
*****
 32 36 0 0 0
SMALL
GASTEIGER

@<TRIPOS>ATOM
      1 C         140.6317  141.2303  162.5891 C.3     1  UNL1        0.2167
      2 N         141.4828  140.4347  163.5339 N.am    1  UNL1       -0.1358
      3 C         142.5232  139.4967  162.9976 C.2     1  UNL1        0.4243
      4 N         143.3743  138.7012  163.9423 N.2     1  UNL1        0.0275
      5 C         143.1850  138.8435  165.4236 C.2     1  UNL1        0.3991
      6 N         143.8699  138.1950  166.5898 N.2     1  UNL1        0.0826
      7 N         143.2527  138.7322  167.8471 N.2     1  UNL1       -0.0375
      8 C         142.1864  139.7127  167.4577 C.2     1  UNL1        0.1282
      9 C         142.1446  139.7815  165.9599 C.3     1  UNL1        0.2504
     10 C         141.2935  140.5771  165.0151 C.2     1  UNL1        0.3055
     11 O         140.2530  141.5151  165.5515 O.2     1  UNL1       -0.2554
     12 N         142.7126  139.3544  161.5163 N.pl3   1  UNL1       -0.1900
     13 C         143.4621  140.4048  160.7517 C.3     1  UNL1        0.1682
     14 C         143.6514  140.2624  159.2705 C.3     1  UNL1        0.0419
     15 C         143.0911  139.0696  158.5540 C.3     1  UNL1        0.0193
     16 C         142.5906  137.9381  157.7060 C.3     1  UNL1        0.0015
     17 C         143.0043  138.2029  156.2886 C.3     1  UNL1        0.0014
     18 C         143.7606  139.4981  156.2607 C.3     1  UNL1        0.0155
     19 C         143.8142  140.0337  157.6608 C.3     1  UNL1        0.0509
     20 N         144.4749  141.3094  158.0921 N.3     1  UNL1       -0.3222
     21 C         142.3416  138.0192  159.3187 C.3     1  UNL1        0.0419
     22 C         142.1523  138.1616  160.7999 C.3     1  UNL1        0.1682
     23 H         144.3594  141.4288  159.0985 H       1  UNL1        0.1188
     24 H         144.0457  142.0961  157.6049 H       1  UNL1        0.1188
     25 C         141.3150  140.4882  168.4007 C.ar    1  UNL1        0.0298
     26 C         140.0448  139.8814  168.9188 C.ar    1  UNL1        0.0022
     27 C         139.1733  140.6569  169.8618 C.ar    1  UNL1        0.0010
     28 C         139.5720  142.0391  170.2867 C.ar    1  UNL1        0.0122
     29 C         140.8422  142.6458  169.7686 C.ar    1  UNL1        0.0682
     30 CL        141.2410  144.0280  170.1935 Cl      1  UNL1       -0.0814
     31 C         141.7137  141.8704  168.8256 C.ar    1  UNL1        0.0695
     32 CL        142.9839  142.4772  168.3075 Cl      1  UNL1       -0.0813
@<TRIPOS>BOND
     1     1     2    1
     2     2     3    1
     3     3    12    1
     4    12    13    1
     5    13    14    1
     6    14    15    1
     7    15    16    1
     8    16    17    1
     9    17    18    1
    10    18    19    1
    11    19    20    1
    12    15    21    1
    13    21    22    1
    14     3     4    2
    15     4     5    1
    16     5     6    2
    17     6     7    1
    18     7     8    2
    19     8    25    1
    20    25    26   ar
    21    26    27   ar
    22    27    28   ar
    23    28    29   ar
    24    29    30    1
    25    29    31   ar
    26    31    32    1
    27     8     9    1
    28     9    10    1
    29    10    11    2
    30    10     2   am
    31    22    12    1
    32     9     5    1
    33    19    15    1
    34    31    25   ar
    35    20    23    1
    36    20    24    1
@<TRIPOS>MOLECULE
*****
 32 36 0 0 0
SMALL
GASTEIGER

@<TRIPOS>ATOM
      1 C         139.3686  144.7723  163.0203 C.3     1  UNL1        0.2167
      2 N         140.2611  143.5932  163.2716 N.am    1  UNL1       -0.1358
      3 C         140.9751  142.9357  162.1279 C.2     1  UNL1        0.4243
      4 N         141.8676  141.7567  162.3792 N.2     1  UNL1        0.0275
      5 C         142.0462  141.2350  163.7742 C.2     1  UNL1        0.3991
      6 N         142.8549  140.0980  164.3247 N.2     1  UNL1        0.0826
      7 N         142.6408  140.0527  165.8086 N.2     1  UNL1       -0.0375
      8 C         141.6998  141.1618  166.1752 C.2     1  UNL1        0.1282
      9 C         141.3323  141.8924  164.9179 C.3     1  UNL1        0.2504
     10 C         140.4397  143.0716  164.6666 C.2     1  UNL1        0.3055
     11 O         139.7258  143.7290  165.8103 O.2     1  UNL1       -0.2554
     12 N         140.7964  143.4574  160.7329 N.pl3   1  UNL1       -0.1900
     13 C         141.7289  144.5037  160.1983 C.3     1  UNL1        0.1682
     14 C         141.5502  145.0253  158.8034 C.3     1  UNL1        0.0419
     15 C         140.4391  144.5007  157.9430 C.3     1  UNL1        0.0193
     16 C         139.3796  144.0735  156.9709 C.3     1  UNL1        0.0015
     17 C         139.5743  144.8500  155.7022 C.3     1  UNL1        0.0014
     18 C         140.7542  145.7569  155.8903 C.3     1  UNL1        0.0155
     19 C         141.2887  145.5411  157.2751 C.3     1  UNL1        0.0509
     20 N         142.4659  146.2424  157.8851 N.3     1  UNL1       -0.3222
     21 C         139.5067  143.4544  158.4776 C.3     1  UNL1        0.0419
     22 C         139.6853  142.9328  159.8725 C.3     1  UNL1        0.1682
     23 H         142.6079  145.9036  158.8367 H       1  UNL1        0.1188
     24 H         142.2906  147.2471  157.9045 H       1  UNL1        0.1188
     25 C         141.2119  141.4836  167.5567 C.ar    1  UNL1        0.0298
     26 C         141.8888  142.5538  168.3607 C.ar    1  UNL1        0.0022
     27 C         141.4010  142.8756  169.7422 C.ar    1  UNL1        0.0010
     28 C         140.2364  142.1273  170.3197 C.ar    1  UNL1        0.0122
     29 C         139.5594  141.0571  169.5157 C.ar    1  UNL1        0.0682
     30 CL        138.3948  140.3087  170.0930 Cl      1  UNL1       -0.0814
     31 C         140.0472  140.7353  168.1342 C.ar    1  UNL1        0.0695
     32 CL        139.3703  139.6651  167.3302 Cl      1  UNL1       -0.0813
@<TRIPOS>BOND
     1     1     2    1
     2     2     3    1
     3     3    12    1
     4    12    13    1
     5    13    14    1
     6    14    15    1
     7    15    16    1
     8    16    17    1
     9    17    18    1
    10    18    19    1
    11    19    20    1
    12    15    21    1
    13    21    22    1
    14     3     4    2
    15     4     5    1
    16     5     6    2
    17     6     7    1
    18     7     8    2
    19     8    25    1
    20    25    26   ar
    21    26    27   ar
    22    27    28   ar
    23    28    29   ar
    24    29    30    1
    25    29    31   ar
    26    31    32    1
    27     8     9    1
    28     9    10    1
    29    10    11    2
    30    10     2   am
    31    22    12    1
    32     9     5    1
    33    19    15    1
    34    31    25   ar
    35    20    23    1
    36    20    24    1
@<TRIPOS>MOLECULE
*****
 32 36 0 0 0
SMALL
GASTEIGER

@<TRIPOS>ATOM
      1 C         139.6445  144.7474  163.0139 C.3     1  UNL1        0.2167
      2 N         140.3331  143.4235  163.1659 N.am    1  UNL1       -0.1358
      3 C         140.8694  142.7140  161.9580 C.2     1  UNL1        0.4243
      4 N         141.5580  141.3901  162.1100 N.2     1  UNL1        0.0275
      5 C         141.7102  140.7756  163.4700 C.2     1  UNL1        0.3991
      6 N         142.3376  139.4921  163.9269 N.2     1  UNL1        0.0826
      7 N         142.1890  139.4083  165.4171 N.2     1  UNL1       -0.0375
      8 C         141.4698  140.6401  165.8812 C.2     1  UNL1        0.1282
      9 C         141.1739  141.4851  164.6778 C.3     1  UNL1        0.2504
     10 C         140.4853  142.8091  164.5258 C.2     1  UNL1        0.3055
     11 O         139.9489  143.5185  165.7337 O.2     1  UNL1       -0.2554
     12 N         140.7172  143.3285  160.5981 N.pl3   1  UNL1       -0.1900
     13 C         141.6927  144.3678  160.1313 C.3     1  UNL1        0.1682
     14 C         141.5405  144.9823  158.7714 C.3     1  UNL1        0.0419
     15 C         140.4126  144.5573  157.8784 C.3     1  UNL1        0.0193
     16 C         139.3407  144.2345  156.8800 C.3     1  UNL1        0.0015
     17 C         139.5711  145.0802  155.6627 C.3     1  UNL1        0.0014
     18 C         140.7856  145.9256  155.9087 C.3     1  UNL1        0.0155
     19 C         141.3056  145.6025  157.2781 C.3     1  UNL1        0.0509
     20 N         142.5076  146.2166  157.9323 N.3     1  UNL1       -0.3222
     21 C         139.4371  143.5180  158.3453 C.3     1  UNL1        0.0419
     22 C         139.5894  142.9035  159.7051 C.3     1  UNL1        0.1682
     23 H         142.6322  145.8137  158.8610 H       1  UNL1        0.1188
     24 H         142.3724  147.2243  158.0143 H       1  UNL1        0.1188
     25 C         141.1097  140.9689  167.2997 C.ar    1  UNL1        0.0298
     26 C         139.8664  140.3936  167.9105 C.ar    1  UNL1        0.0022
     27 C         139.5062  140.7224  169.3291 C.ar    1  UNL1        0.0010
     28 C         140.3894  141.6266  170.1368 C.ar    1  UNL1        0.0122
     29 C         141.6327  142.2019  169.5260 C.ar    1  UNL1        0.0682
     30 CL        142.5160  143.1061  170.3336 Cl      1  UNL1       -0.0814
     31 C         141.9929  141.8731  168.1075 C.ar    1  UNL1        0.0695
     32 CL        143.2362  142.4485  167.4967 Cl      1  UNL1       -0.0813
@<TRIPOS>BOND
     1     1     2    1
     2     2     3    1
     3     3    12    1
     4    12    13    1
     5    13    14    1
     6    14    15    1
     7    15    16    1
     8    16    17    1
     9    17    18    1
    10    18    19    1
    11    19    20    1
    12    15    21    1
    13    21    22    1
    14     3     4    2
    15     4     5    1
    16     5     6    2
    17     6     7    1
    18     7     8    2
    19     8    25    1
    20    25    26   ar
    21    26    27   ar
    22    27    28   ar
    23    28    29   ar
    24    29    30    1
    25    29    31   ar
    26    31    32    1
    27     8     9    1
    28     9    10    1
    29    10    11    2
    30    10     2   am
    31    22    12    1
    32     9     5    1
    33    19    15    1
    34    31    25   ar
    35    20    23    1
    36    20    24    1
@<TRIPOS>MOLECULE
*****
 32 36 0 0 0
SMALL
GASTEIGER

@<TRIPOS>ATOM
      1 C         142.3545  140.9371  162.9987 C.3     1  UNL1        0.2167
      2 N         141.5864  142.2219  162.9017 N.am    1  UNL1       -0.1358
      3 C         141.0208  142.8528  164.1395 C.2     1  UNL1        0.4243
      4 N         140.2527  144.1376  164.0425 N.2     1  UNL1        0.0275
      5 C         140.0503  144.7915  162.7078 C.2     1  UNL1        0.3991
      6 N         139.3427  146.0509  162.3042 N.2     1  UNL1        0.0826
      7 N         139.4709  146.1985  160.8170 N.2     1  UNL1       -0.0375
      8 C         140.2578  145.0301  160.3015 C.2     1  UNL1        0.1282
      9 C         140.6159  144.1606  161.4700 C.3     1  UNL1        0.2504
     10 C         141.3840  142.8758  161.5670 C.2     1  UNL1        0.3055
     11 O         141.9496  142.2449  160.3293 O.2     1  UNL1       -0.2554
     12 N         141.2232  142.1989  165.4742 N.pl3   1  UNL1       -0.1900
     13 C         140.1162  141.3976  166.0924 C.3     1  UNL1        0.1682
     14 C         140.3187  140.7438  167.4271 C.3     1  UNL1        0.0419
     15 C         141.6282  140.8912  168.1435 C.3     1  UNL1        0.0193
     16 C         142.8761  140.9500  168.9739 C.3     1  UNL1        0.0015
     17 C         142.6375  140.1588  170.2259 C.3     1  UNL1        0.0014
     18 C         141.2422  139.6110  170.1692 C.3     1  UNL1        0.0155
     19 C         140.6184  140.0636  168.8823 C.3     1  UNL1        0.0509
     20 N         139.2289  139.7448  168.4159 N.3     1  UNL1       -0.3222
     21 C         142.7353  141.6925  167.5253 C.3     1  UNL1        0.0419
     22 C         142.5328  142.3463  166.1906 C.3     1  UNL1        0.1682
     23 H         139.0670  140.1798  167.5076 H       1  UNL1        0.1188
     24 H         138.5532  140.1040  169.0902 H       1  UNL1        0.1188
     25 C         140.6226  144.7760  158.8688 C.ar    1  UNL1        0.0298
     26 C         141.7365  145.5511  158.2297 C.ar    1  UNL1        0.0022
     27 C         142.1013  145.2971  156.7971 C.ar    1  UNL1        0.0010
     28 C         141.3522  144.2679  156.0036 C.ar    1  UNL1        0.0122
     29 C         140.2383  143.4928  156.6427 C.ar    1  UNL1        0.0682
     30 CL        139.4892  142.4637  155.8492 Cl      1  UNL1       -0.0814
     31 C         139.8735  143.7469  158.0753 C.ar    1  UNL1        0.0695
     32 CL        138.7596  142.9718  158.7144 Cl      1  UNL1       -0.0813
@<TRIPOS>BOND
     1     1     2    1
     2     2     3    1
     3     3    12    1
     4    12    13    1
     5    13    14    1
     6    14    15    1
     7    15    16    1
     8    16    17    1
     9    17    18    1
    10    18    19    1
    11    19    20    1
    12    15    21    1
    13    21    22    1
    14     3     4    2
    15     4     5    1
    16     5     6    2
    17     6     7    1
    18     7     8    2
    19     8    25    1
    20    25    26   ar
    21    26    27   ar
    22    27    28   ar
    23    28    29   ar
    24    29    30    1
    25    29    31   ar
    26    31    32    1
    27     8     9    1
    28     9    10    1
    29    10    11    2
    30    10     2   am
    31    22    12    1
    32     9     5    1
    33    19    15    1
    34    31    25   ar
    35    20    23    1
    36    20    24    1
@<TRIPOS>MOLECULE
*****
 32 36 0 0 0
SMALL
GASTEIGER

@<TRIPOS>ATOM
      1 C         143.6266  139.4440  161.5790 C.3     1  UNL1        0.2167
      2 N         142.6493  140.5719  161.7301 N.am    1  UNL1       -0.1358
      3 C         142.5120  141.5961  160.6429 C.2     1  UNL1        0.4243
      4 N         141.5347  142.7239  160.7940 N.2     1  UNL1        0.0275
      5 C         140.6946  142.8276  162.0324 C.2     1  UNL1        0.3991
      6 N         139.6544  143.8202  162.4593 N.2     1  UNL1        0.0826
      7 N         139.1486  143.4095  163.8104 N.2     1  UNL1       -0.0375
      8 C         139.8764  142.1630  164.2185 C.2     1  UNL1        0.1282
      9 C         140.8319  141.8034  163.1196 C.3     1  UNL1        0.2504
     10 C         141.8092  140.6755  162.9685 C.2     1  UNL1        0.3055
     11 O         141.9465  139.6513  164.0557 O.2     1  UNL1       -0.2554
     12 N         143.3522  141.4925  159.4045 N.pl3   1  UNL1       -0.1900
     13 C         144.5476  142.3820  159.2326 C.3     1  UNL1        0.1682
     14 C         145.3876  142.2784  157.9942 C.3     1  UNL1        0.0419
     15 C         145.0322  141.2852  156.9278 C.3     1  UNL1        0.0193
     16 C         144.8016  140.3448  155.7821 C.3     1  UNL1        0.0015
     17 C         145.8773  140.5821  154.7639 C.3     1  UNL1        0.0014
     18 C         146.7727  141.6692  155.2804 C.3     1  UNL1        0.0155
     19 C         146.2505  142.1036  156.6177 C.3     1  UNL1        0.0509
     20 N         146.8424  143.1694  157.4915 N.3     1  UNL1       -0.3222
     21 C         143.8368  140.3956  157.0997 C.3     1  UNL1        0.0419
     22 C         142.9968  140.4993  158.3381 C.3     1  UNL1        0.1682
     23 H         146.2869  143.2589  158.3423 H       1  UNL1        0.1188
     24 H         146.8429  144.0581  156.9909 H       1  UNL1        0.1188
     25 C         139.6827  141.4086  165.5005 C.ar    1  UNL1        0.0298
     26 C         140.3843  141.8573  166.7480 C.ar    1  UNL1        0.0022
     27 C         140.1906  141.1030  168.0300 C.ar    1  UNL1        0.0010
     28 C         139.2952  139.9001  168.0645 C.ar    1  UNL1        0.0122
     29 C         138.5936  139.4514  166.8169 C.ar    1  UNL1        0.0682
     30 CL        137.6983  138.2484  166.8513 Cl      1  UNL1       -0.0814
     31 C         138.7873  140.2057  165.5349 C.ar    1  UNL1        0.0695
     32 CL        138.0857  139.7570  164.2874 Cl      1  UNL1       -0.0813
@<TRIPOS>BOND
     1     1     2    1
     2     2     3    1
     3     3    12    1
     4    12    13    1
     5    13    14    1
     6    14    15    1
     7    15    16    1
     8    16    17    1
     9    17    18    1
    10    18    19    1
    11    19    20    1
    12    15    21    1
    13    21    22    1
    14     3     4    2
    15     4     5    1
    16     5     6    2
    17     6     7    1
    18     7     8    2
    19     8    25    1
    20    25    26   ar
    21    26    27   ar
    22    27    28   ar
    23    28    29   ar
    24    29    30    1
    25    29    31   ar
    26    31    32    1
    27     8     9    1
    28     9    10    1
    29    10    11    2
    30    10     2   am
    31    22    12    1
    32     9     5    1
    33    19    15    1
    34    31    25   ar
    35    20    23    1
    36    20    24    1
@<TRIPOS>MOLECULE
*****
 32 36 0 0 0
SMALL
GASTEIGER

@<TRIPOS>ATOM
      1 C         143.6628  140.0686  163.9968 C.3     1  UNL1        0.2167
      2 N         143.2084  141.2730  163.2266 N.am    1  UNL1       -0.1358
      3 C         142.4729  142.3772  163.9264 C.2     1  UNL1        0.4243
      4 N         142.0185  143.5815  163.1562 N.2     1  UNL1        0.0275
      5 C         142.2996  143.6815  161.6861 C.2     1  UNL1        0.3991
      6 N         141.9772  144.7389  160.6723 N.2     1  UNL1        0.0826
      7 N         142.5134  144.2882  159.3459 N.2     1  UNL1       -0.0375
      8 C         143.1672  142.9522  159.5400 C.2     1  UNL1        0.1282
      9 C         143.0351  142.5773  160.9863 C.3     1  UNL1        0.2504
     10 C         143.4895  141.3730  161.7566 C.2     1  UNL1        0.3055
     11 O         144.2249  140.2688  161.0568 O.2     1  UNL1       -0.2554
     12 N         142.1918  142.2771  165.3965 N.pl3   1  UNL1       -0.1900
     13 C         143.2889  142.5265  166.3885 C.3     1  UNL1        0.1682
     14 C         143.0078  142.4264  167.8585 C.3     1  UNL1        0.0419
     15 C         141.6296  142.0770  168.3365 C.3     1  UNL1        0.0193
     16 C         140.3082  141.7384  168.9604 C.3     1  UNL1        0.0015
     17 C         140.4825  141.7501  170.4503 C.3     1  UNL1        0.0014
     18 C         141.9116  142.0958  170.7471 C.3     1  UNL1        0.0155
     19 C         142.6206  142.2978  169.4407 C.3     1  UNL1        0.0509
     20 N         144.0666  142.6575  169.2687 N.3     1  UNL1       -0.3222
     21 C         140.5325  141.8276  167.3444 C.3     1  UNL1        0.0419
     22 C         140.8136  141.9277  165.8744 C.3     1  UNL1        0.1682
     23 H         144.2826  142.7316  168.2746 H       1  UNL1        0.1188
     24 H         144.6493  141.9343  169.6903 H       1  UNL1        0.1188
     25 C         143.8357  142.1348  158.4747 C.ar    1  UNL1        0.0298
     26 C         145.1900  142.5302  157.9653 C.ar    1  UNL1        0.0022
     27 C         145.8586  141.7128  156.9000 C.ar    1  UNL1        0.0010
     28 C         145.1730  140.5000  156.3441 C.ar    1  UNL1        0.0122
     29 C         143.8187  140.1046  156.8536 C.ar    1  UNL1        0.0682
     30 CL        143.1329  138.8919  156.2978 Cl      1  UNL1       -0.0814
     31 C         143.1500  140.9220  157.9189 C.ar    1  UNL1        0.0695
     32 CL        141.7958  140.5266  158.4283 Cl      1  UNL1       -0.0813
@<TRIPOS>BOND
     1     1     2    1
     2     2     3    1
     3     3    12    1
     4    12    13    1
     5    13    14    1
     6    14    15    1
     7    15    16    1
     8    16    17    1
     9    17    18    1
    10    18    19    1
    11    19    20    1
    12    15    21    1
    13    21    22    1
    14     3     4    2
    15     4     5    1
    16     5     6    2
    17     6     7    1
    18     7     8    2
    19     8    25    1
    20    25    26   ar
    21    26    27   ar
    22    27    28   ar
    23    28    29   ar
    24    29    30    1
    25    29    31   ar
    26    31    32    1
    27     8     9    1
    28     9    10    1
    29    10    11    2
    30    10     2   am
    31    22    12    1
    32     9     5    1
    33    19    15    1
    34    31    25   ar
    35    20    23    1
    36    20    24    1
@<TRIPOS>MOLECULE
*****
 32 36 0 0 0
SMALL
GASTEIGER

@<TRIPOS>ATOM
      1 C         139.9848  142.0763  162.3982 C.3     1  UNL1        0.2167
      2 N         141.1633  142.5729  163.1821 N.am    1  UNL1       -0.1358
      3 C         142.1398  143.5196  162.5494 C.2     1  UNL1        0.4243
      4 N         143.3183  144.0162  163.3332 N.2     1  UNL1        0.0275
      5 C         143.5204  143.5662  164.7498 C.2     1  UNL1        0.3991
      6 N         144.5802  143.8843  165.7624 N.2     1  UNL1        0.0826
      7 N         144.2588  143.1343  167.0210 N.2     1  UNL1       -0.0375
      8 C         143.0003  142.3526  166.7862 C.2     1  UNL1        0.1282
      9 C         142.5440  142.6195  165.3825 C.3     1  UNL1        0.2504
     10 C         141.3654  142.1229  164.5986 C.2     1  UNL1        0.3055
     11 O         140.3889  141.1762  165.2314 O.2     1  UNL1       -0.2554
     12 N         141.9377  143.9696  161.1328 N.pl3   1  UNL1       -0.1900
     13 C         142.8025  143.4160  160.0394 C.3     1  UNL1        0.1682
     14 C         142.6004  143.8661  158.6228 C.3     1  UNL1        0.0419
     15 C         141.5334  144.8697  158.2997 C.3     1  UNL1        0.0193
     16 C         140.5123  145.8615  157.8269 C.3     1  UNL1        0.0015
     17 C         140.6647  146.0118  156.3422 C.3     1  UNL1        0.0014
     18 C         141.7800  145.1127  155.8974 C.3     1  UNL1        0.0155
     19 C         142.3169  144.4069  157.1072 C.3     1  UNL1        0.0509
     20 N         143.4401  143.4128  157.1220 N.3     1  UNL1       -0.3222
     21 C         140.6686  145.4232  159.3932 C.3     1  UNL1        0.0419
     22 C         140.8707  144.9732  160.8097 C.3     1  UNL1        0.1682
     23 H         143.5969  143.0912  158.0772 H       1  UNL1        0.1188
     24 H         144.2890  143.8536  156.7680 H       1  UNL1        0.1188
     25 C         142.3180  141.4605  167.7806 C.ar    1  UNL1        0.0298
     26 C         142.8851  140.1059  168.0858 C.ar    1  UNL1        0.0022
     27 C         142.2029  139.2138  169.0801 C.ar    1  UNL1        0.0010
     28 C         140.9535  139.6764  169.7693 C.ar    1  UNL1        0.0122
     29 C         140.3863  141.0311  169.4641 C.ar    1  UNL1        0.0682
     30 CL        139.1370  141.4937  170.1532 Cl      1  UNL1       -0.0814
     31 C         141.0686  141.9231  168.4697 C.ar    1  UNL1        0.0695
     32 CL        140.5014  143.2778  168.1646 Cl      1  UNL1       -0.0813
@<TRIPOS>BOND
     1     1     2    1
     2     2     3    1
     3     3    12    1
     4    12    13    1
     5    13    14    1
     6    14    15    1
     7    15    16    1
     8    16    17    1
     9    17    18    1
    10    18    19    1
    11    19    20    1
    12    15    21    1
    13    21    22    1
    14     3     4    2
    15     4     5    1
    16     5     6    2
    17     6     7    1
    18     7     8    2
    19     8    25    1
    20    25    26   ar
    21    26    27   ar
    22    27    28   ar
    23    28    29   ar
    24    29    30    1
    25    29    31   ar
    26    31    32    1
    27     8     9    1
    28     9    10    1
    29    10    11    2
    30    10     2   am
    31    22    12    1
    32     9     5    1
    33    19    15    1
    34    31    25   ar
    35    20    23    1
    36    20    24    1
@<TRIPOS>MOLECULE
*****
 32 36 0 0 0
SMALL
GASTEIGER

@<TRIPOS>ATOM
      1 C         144.0495  139.9673  162.0668 C.3     1  UNL1        0.2167
      2 N         142.7271  140.6671  161.9581 N.am    1  UNL1       -0.1358
      3 C         142.3612  141.3871  160.6942 C.2     1  UNL1        0.4243
      4 N         141.0389  142.0868  160.5855 N.2     1  UNL1        0.0275
      5 C         140.0824  142.0665  161.7409 C.2     1  UNL1        0.3991
      6 N         138.7181  142.6620  161.9250 N.2     1  UNL1        0.0826
      7 N         138.2407  142.3100  163.3028 N.2     1  UNL1       -0.0375
      8 C         139.3101  141.4969  163.9701 C.2     1  UNL1        0.1282
      9 C         140.4483  141.3464  163.0048 C.3     1  UNL1        0.2504
     10 C         141.7707  140.6467  163.1135 C.2     1  UNL1        0.3055
     11 O         142.1365  139.9266  164.3774 O.2     1  UNL1       -0.2554
     12 N         143.3177  141.4075  159.5388 N.pl3   1  UNL1       -0.1900
     13 C         143.2799  140.3124  158.5145 C.3     1  UNL1        0.1682
     14 C         144.2364  140.3328  157.3592 C.3     1  UNL1        0.0419
     15 C         145.2307  141.4483  157.2283 C.3     1  UNL1        0.0193
     16 C         146.2749  142.4929  156.9666 C.3     1  UNL1        0.0015
     17 C         147.0005  142.1178  155.7083 C.3     1  UNL1        0.0014
     18 C         146.4046  140.8415  155.1925 C.3     1  UNL1        0.0155
     19 C         145.3109  140.4278  156.1319 C.3     1  UNL1        0.0509
     20 N         144.4486  139.2077  155.9983 N.3     1  UNL1       -0.3222
     21 C         145.2684  142.5434  158.2527 C.3     1  UNL1        0.0419
     22 C         144.3120  142.5230  159.4079 C.3     1  UNL1        0.1682
     23 H         143.7880  139.1716  156.7747 H       1  UNL1        0.1188
     24 H         145.0354  138.3735  156.0121 H       1  UNL1        0.1188
     25 C         139.2515  140.9332  165.3590 C.ar    1  UNL1        0.0298
     26 C         138.4708  139.6809  165.6277 C.ar    1  UNL1        0.0022
     27 C         138.4121  139.1172  167.0166 C.ar    1  UNL1        0.0010
     28 C         139.1341  139.8059  168.1366 C.ar    1  UNL1        0.0122
     29 C         139.9147  141.0582  167.8679 C.ar    1  UNL1        0.0682
     30 CL        140.6366  141.7469  168.9878 Cl      1  UNL1       -0.0814
     31 C         139.9734  141.6219  166.4790 C.ar    1  UNL1        0.0695
     32 CL        140.7540  142.8742  166.2103 Cl      1  UNL1       -0.0813
@<TRIPOS>BOND
     1     1     2    1
     2     2     3    1
     3     3    12    1
     4    12    13    1
     5    13    14    1
     6    14    15    1
     7    15    16    1
     8    16    17    1
     9    17    18    1
    10    18    19    1
    11    19    20    1
    12    15    21    1
    13    21    22    1
    14     3     4    2
    15     4     5    1
    16     5     6    2
    17     6     7    1
    18     7     8    2
    19     8    25    1
    20    25    26   ar
    21    26    27   ar
    22    27    28   ar
    23    28    29   ar
    24    29    30    1
    25    29    31   ar
    26    31    32    1
    27     8     9    1
    28     9    10    1
    29    10    11    2
    30    10     2   am
    31    22    12    1
    32     9     5    1
    33    19    15    1
    34    31    25   ar
    35    20    23    1
    36    20    24    1
@<TRIPOS>MOLECULE
*****
 32 36 0 0 0
SMALL
GASTEIGER

@<TRIPOS>ATOM
      1 C         143.7303  139.6170  164.0269 C.3     1  UNL1        0.2167
      2 N         143.2576  140.8808  163.3713 N.am    1  UNL1       -0.1358
      3 C         142.5141  141.9083  164.1722 C.2     1  UNL1        0.4243
      4 N         142.0414  143.1720  163.5167 N.2     1  UNL1        0.0275
      5 C         142.3122  143.4081  162.0603 C.2     1  UNL1        0.3991
      6 N         141.9716  144.5491  161.1482 N.2     1  UNL1        0.0826
      7 N         142.5045  144.2268  159.7837 N.2     1  UNL1       -0.0375
      8 C         143.1745  142.8865  159.8525 C.2     1  UNL1        0.1282
      9 C         143.0557  142.3805  161.2594 C.3     1  UNL1        0.2504
     10 C         143.5284  141.1168  161.9150 C.2     1  UNL1        0.3055
     11 O         144.2719  140.0893  161.1141 O.2     1  UNL1       -0.2554
     12 N         142.2434  141.6722  165.6286 N.pl3   1  UNL1       -0.1900
     13 C         141.0329  140.8929  166.0496 C.3     1  UNL1        0.1682
     14 C         140.7622  140.6567  167.5060 C.3     1  UNL1        0.0419
     15 C         141.7020  141.2000  168.5412 C.3     1  UNL1        0.0193
     16 C         142.5472  141.6789  169.6841 C.3     1  UNL1        0.0015
     17 C         141.9061  141.2184  170.9597 C.3     1  UNL1        0.0014
     18 C         140.6646  140.4548  170.6051 C.3     1  UNL1        0.0155
     19 C         140.5385  140.4434  169.1104 C.3     1  UNL1        0.0509
     20 N         139.4415  139.7902  168.3231 N.3     1  UNL1       -0.3222
     21 C         142.9125  141.9793  168.1201 C.3     1  UNL1        0.0419
     22 C         143.1832  142.2154  166.6638 C.3     1  UNL1        0.1682
     23 H         139.6039  139.9374  167.3270 H       1  UNL1        0.1188
     24 H         138.5447  140.1993  168.5855 H       1  UNL1        0.1188
     25 C         143.8456  142.1768  158.7140 C.ar    1  UNL1        0.0298
     26 C         145.1973  142.6252  158.2432 C.ar    1  UNL1        0.0022
     27 C         145.8685  141.9156  157.1047 C.ar    1  UNL1        0.0010
     28 C         145.1878  140.7577  156.4370 C.ar    1  UNL1        0.0122
     29 C         143.8360  140.3093  156.9078 C.ar    1  UNL1        0.0682
     30 CL        143.1553  139.1513  156.2402 Cl      1  UNL1       -0.0814
     31 C         143.1649  141.0189  158.0463 C.ar    1  UNL1        0.0695
     32 CL        141.8131  140.5705  158.5171 Cl      1  UNL1       -0.0813
@<TRIPOS>BOND
     1     1     2    1
     2     2     3    1
     3     3    12    1
     4    12    13    1
     5    13    14    1
     6    14    15    1
     7    15    16    1
     8    16    17    1
     9    17    18    1
    10    18    19    1
    11    19    20    1
    12    15    21    1
    13    21    22    1
    14     3     4    2
    15     4     5    1
    16     5     6    2
    17     6     7    1
    18     7     8    2
    19     8    25    1
    20    25    26   ar
    21    26    27   ar
    22    27    28   ar
    23    28    29   ar
    24    29    30    1
    25    29    31   ar
    26    31    32    1
    27     8     9    1
    28     9    10    1
    29    10    11    2
    30    10     2   am
    31    22    12    1
    32     9     5    1
    33    19    15    1
    34    31    25   ar
    35    20    23    1
    36    20    24    1
