@<TRIPOS>MOLECULE
*****
 25 28 0 0 0
SMALL
GASTEIGER

@<TRIPOS>ATOM
      1 C         139.4323  138.3685  164.4469 C.2     1  UNL1        0.0356
      2 C         138.4307  137.5348  165.1895 C.2     1  UNL1        0.0021
      3 C         138.0832  137.8682  166.6101 C.2     1  UNL1        0.0205
      4 C         138.7373  139.0353  167.2881 C.2     1  UNL1        0.1004
      5 N         138.5962  139.6017  168.6699 N.2     1  UNL1       -0.1486
      6 N         139.5106  140.7855  168.7813 N.2     1  UNL1       -0.1523
      7 C         140.2169  140.9508  167.4683 C.2     1  UNL1        0.0827
      8 C         139.7389  139.8691  166.5455 C.2     1  UNL1        0.0174
      9 C         140.0864  139.5357  165.1249 C.3     1  UNL1        0.0601
     10 C         139.3717  138.3415  160.4788 C.3     1  UNL1        0.1109
     11 N         139.0242  138.6749  161.8994 N.am    1  UNL1       -0.2994
     12 C         139.7798  138.0352  163.0263 C.2     1  UNL1        0.2422
     13 O         140.8828  137.0620  162.7325 O.2     1  UNL1       -0.2705
     14 H         138.3003  139.3136  162.0922 H       1  UNL1        0.1498
     15 C         141.2242  142.0115  167.1365 C.3     1  UNL1        0.0736
     16 C         141.0401  142.8655  165.9171 C.ar    1  UNL1       -0.0160
     17 C         139.8141  143.7183  165.7770 C.ar    1  UNL1       -0.0024
     18 C         139.6300  144.5723  164.5576 C.ar    1  UNL1        0.0185
     19 C         140.6718  144.5734  163.4784 C.ar    1  UNL1        0.0794
     20 C         141.8977  143.7205  163.6186 C.ar    1  UNL1        0.0379
     21 C         142.7475  143.9265  162.3998 C.ar    1  UNL1        0.1216
     22 N         142.0467  144.9066  161.5064 N.ar    1  UNL1       -0.1676
     23 N         140.7638  145.3065  162.1730 N.ar    1  UNL1       -0.2488
     24 C         139.7509  146.2702  161.6296 C.3     1  UNL1        0.1537
     25 C         142.0818  142.8666  164.8379 C.ar    1  UNL1       -0.0008
@<TRIPOS>BOND
     1    10    11    1
     2    11    12   am
     3    12    13    2
     4    12     1    1
     5     1     2    2
     6     2     3    1
     7     3     4    2
     8     4     5    1
     9     5     6    2
    10     6     7    1
    11     7    15    1
    12    15    16    1
    13    16    17   ar
    14    17    18   ar
    15    18    19   ar
    16    19    20   ar
    17    20    21   ar
    18    21    22   ar
    19    22    23   ar
    20    23    24    1
    21    20    25   ar
    22     7     8    2
    23     8     9    1
    24     9     1    1
    25     8     4    1
    26    25    16   ar
    27    23    19   ar
    28    11    14    1
@<TRIPOS>MOLECULE
*****
 25 28 0 0 0
SMALL
GASTEIGER

@<TRIPOS>ATOM
      1 C         142.5694  141.4731  166.6365 C.2     1  UNL1        0.0356
      2 C         142.7497  141.9771  168.0376 C.2     1  UNL1        0.0021
      3 C         141.7438  141.6300  169.0948 C.2     1  UNL1        0.0205
      4 C         140.5576  140.7789  168.7509 C.2     1  UNL1        0.1004
      5 N         139.4097  140.2767  169.5755 N.2     1  UNL1       -0.1486
      6 N         138.5198  139.4622  168.6839 N.2     1  UNL1       -0.1523
      7 C         139.1178  139.4610  167.3083 C.2     1  UNL1        0.0827
      8 C         140.3773  140.2748  167.3497 C.2     1  UNL1        0.0174
      9 C         141.3832  140.6219  166.2925 C.3     1  UNL1        0.0601
     10 C         145.1855  141.0849  163.6775 C.3     1  UNL1        0.1109
     11 N         144.1796  140.7378  164.7347 N.am    1  UNL1       -0.2994
     12 C         143.5753  141.8202  165.5792 C.2     1  UNL1        0.2422
     13 O         143.9769  143.2496  165.3665 O.2     1  UNL1       -0.2705
     14 H         143.9160  139.7995  164.8743 H       1  UNL1        0.1498
     15 C         138.5553  138.7678  166.1029 C.3     1  UNL1        0.0736
     16 C         138.5007  139.4814  164.7847 C.ar    1  UNL1       -0.0160
     17 C         138.8716  138.7577  163.5242 C.ar    1  UNL1       -0.0024
     18 C         138.8171  139.4714  162.2060 C.ar    1  UNL1        0.0185
     19 C         138.3917  140.9087  162.1482 C.ar    1  UNL1        0.0794
     20 C         138.0208  141.6323  163.4086 C.ar    1  UNL1        0.0379
     21 C         137.6427  143.0369  163.0426 C.ar    1  UNL1        0.1216
     22 N         137.7799  143.1814  161.5559 N.ar    1  UNL1       -0.1676
     23 N         138.2428  141.8661  161.0031 N.ar    1  UNL1       -0.2488
     24 C         138.5099  141.5616  159.5588 C.3     1  UNL1        0.1537
     25 C         138.0753  140.9187  164.7269 C.ar    1  UNL1       -0.0008
@<TRIPOS>BOND
     1    10    11    1
     2    11    12   am
     3    12    13    2
     4    12     1    1
     5     1     2    2
     6     2     3    1
     7     3     4    2
     8     4     5    1
     9     5     6    2
    10     6     7    1
    11     7    15    1
    12    15    16    1
    13    16    17   ar
    14    17    18   ar
    15    18    19   ar
    16    19    20   ar
    17    20    21   ar
    18    21    22   ar
    19    22    23   ar
    20    23    24    1
    21    20    25   ar
    22     7     8    2
    23     8     9    1
    24     9     1    1
    25     8     4    1
    26    25    16   ar
    27    23    19   ar
    28    11    14    1
@<TRIPOS>MOLECULE
*****
 25 28 0 0 0
SMALL
GASTEIGER

@<TRIPOS>ATOM
      1 C         140.9258  142.5023  166.6074 C.2     1  UNL1        0.0356
      2 C         140.4112  142.8409  167.9750 C.2     1  UNL1        0.0021
      3 C         140.7454  141.9594  169.1417 C.2     1  UNL1        0.0205
      4 C         141.5944  140.7392  168.9408 C.2     1  UNL1        0.1004
      5 N         142.0850  139.6898  169.8937 N.2     1  UNL1       -0.1486
      6 N         142.9029  138.7026  169.1150 N.2     1  UNL1       -0.1523
      7 C         142.9178  139.1418  167.6808 C.2     1  UNL1        0.0827
      8 C         142.1090  140.4005  167.5732 C.2     1  UNL1        0.0174
      9 C         141.7747  141.2821  166.4065 C.3     1  UNL1        0.0601
     10 C         138.8272  144.6079  163.9784 C.3     1  UNL1        0.1109
     11 N         139.1615  143.7264  165.1451 N.am    1  UNL1       -0.2994
     12 C         140.5915  143.3838  165.4407 C.2     1  UNL1        0.2422
     13 O         141.6873  143.9227  164.5697 O.2     1  UNL1       -0.2705
     14 H         138.4422  143.3727  165.7168 H       1  UNL1        0.1498
     15 C         143.6183  138.4447  166.5524 C.3     1  UNL1        0.0736
     16 C         143.0309  138.4741  165.1726 C.ar    1  UNL1       -0.0160
     17 C         143.8124  139.0658  164.0372 C.ar    1  UNL1       -0.0024
     18 C         143.2250  139.0952  162.6573 C.ar    1  UNL1        0.0185
     19 C         141.8559  138.5330  162.4128 C.ar    1  UNL1        0.0794
     20 C         141.0744  137.9413  163.5483 C.ar    1  UNL1        0.0379
     21 C         139.7586  137.4660  163.0072 C.ar    1  UNL1        0.1216
     22 N         139.7269  137.7638  161.5374 N.ar    1  UNL1       -0.1676
     23 N         141.0231  138.4233  161.1700 N.ar    1  UNL1       -0.2488
     24 C         141.4174  138.8909  159.8004 C.3     1  UNL1        0.1537
     25 C         141.6619  137.9119  164.9281 C.ar    1  UNL1       -0.0008
@<TRIPOS>BOND
     1    10    11    1
     2    11    12   am
     3    12    13    2
     4    12     1    1
     5     1     2    2
     6     2     3    1
     7     3     4    2
     8     4     5    1
     9     5     6    2
    10     6     7    1
    11     7    15    1
    12    15    16    1
    13    16    17   ar
    14    17    18   ar
    15    18    19   ar
    16    19    20   ar
    17    20    21   ar
    18    21    22   ar
    19    22    23   ar
    20    23    24    1
    21    20    25   ar
    22     7     8    2
    23     8     9    1
    24     9     1    1
    25     8     4    1
    26    25    16   ar
    27    23    19   ar
    28    11    14    1
@<TRIPOS>MOLECULE
*****
 25 28 0 0 0
SMALL
GASTEIGER

@<TRIPOS>ATOM
      1 C         141.8390  143.5887  162.9550 C.2     1  UNL1        0.0356
      2 C         143.0236  144.3760  162.4788 C.2     1  UNL1        0.0021
      3 C         144.4005  143.7876  162.5688 C.2     1  UNL1        0.0205
      4 C         144.5927  142.4119  163.1350 C.2     1  UNL1        0.1004
      5 N         145.8202  141.5767  163.3482 N.2     1  UNL1       -0.1486
      6 N         145.3943  140.2733  163.9561 N.2     1  UNL1       -0.1523
      7 C         143.9034  140.3028  164.1186 C.2     1  UNL1        0.0827
      8 C         143.4080  141.6247  163.6111 C.2     1  UNL1        0.0174
      9 C         142.0312  142.2131  163.5211 C.3     1  UNL1        0.0601
     10 C         137.8814  143.8819  162.9156 C.3     1  UNL1        0.1109
     11 N         139.2582  143.2935  163.0056 N.am    1  UNL1       -0.2994
     12 C         140.4621  144.1771  162.8650 C.2     1  UNL1        0.2422
     13 O         140.2892  145.6491  162.6343 O.2     1  UNL1       -0.2705
     14 H         139.3717  142.3273  163.1570 H       1  UNL1        0.1498
     15 C         143.0567  139.2037  164.6886 C.3     1  UNL1        0.0736
     16 C         142.2376  139.4502  165.9207 C.ar    1  UNL1       -0.0160
     17 C         140.7535  139.6381  165.8096 C.ar    1  UNL1       -0.0024
     18 C         139.9344  139.8845  167.0418 C.ar    1  UNL1        0.0185
     19 C         140.5993  139.9431  168.3852 C.ar    1  UNL1        0.0794
     20 C         142.0833  139.7552  168.4962 C.ar    1  UNL1        0.0379
     21 C         142.4572  139.8646  169.9448 C.ar    1  UNL1        0.1216
     22 N         141.2043  140.1202  170.7289 N.ar    1  UNL1       -0.1676
     23 N         140.0560  140.1687  169.7650 N.ar    1  UNL1       -0.2488
     24 C         138.6171  140.4018  170.1188 C.3     1  UNL1        0.1537
     25 C         142.9024  139.5087  167.2640 C.ar    1  UNL1       -0.0008
@<TRIPOS>BOND
     1    10    11    1
     2    11    12   am
     3    12    13    2
     4    12     1    1
     5     1     2    2
     6     2     3    1
     7     3     4    2
     8     4     5    1
     9     5     6    2
    10     6     7    1
    11     7    15    1
    12    15    16    1
    13    16    17   ar
    14    17    18   ar
    15    18    19   ar
    16    19    20   ar
    17    20    21   ar
    18    21    22   ar
    19    22    23   ar
    20    23    24    1
    21    20    25   ar
    22     7     8    2
    23     8     9    1
    24     9     1    1
    25     8     4    1
    26    25    16   ar
    27    23    19   ar
    28    11    14    1
@<TRIPOS>MOLECULE
*****
 25 28 0 0 0
SMALL
GASTEIGER

@<TRIPOS>ATOM
      1 C         142.5170  141.5628  166.0986 C.2     1  UNL1        0.0356
      2 C         143.0644  142.1960  167.3434 C.2     1  UNL1        0.0021
      3 C         142.3540  142.0143  168.6520 C.2     1  UNL1        0.0205
      4 C         141.0964  141.1994  168.7158 C.2     1  UNL1        0.1004
      5 N         140.1849  140.8478  169.8541 N.2     1  UNL1       -0.1486
      6 N         139.0741  139.9973  169.3128 N.2     1  UNL1       -0.1523
      7 C         139.2991  139.8232  167.8400 C.2     1  UNL1        0.0827
      8 C         140.5490  140.5662  167.4711 C.2     1  UNL1        0.0174
      9 C         141.2593  140.7479  166.1625 C.3     1  UNL1        0.0601
     10 C         143.1881  142.4336  162.2854 C.3     1  UNL1        0.1109
     11 N         142.4778  142.2519  163.5940 N.am    1  UNL1       -0.2994
     12 C         143.2273  141.7445  164.7900 C.2     1  UNL1        0.2422
     13 O         144.6871  141.4187  164.6775 O.2     1  UNL1       -0.2705
     14 H         141.5196  142.4657  163.6678 H       1  UNL1        0.1498
     15 C         138.4275  139.0432  166.9011 C.3     1  UNL1        0.0736
     16 C         138.4571  139.3380  165.4306 C.ar    1  UNL1       -0.0160
     17 C         137.9043  140.6333  164.9141 C.ar    1  UNL1       -0.0024
     18 C         137.9339  140.9280  163.4437 C.ar    1  UNL1        0.0185
     19 C         138.5163  139.9276  162.4897 C.ar    1  UNL1        0.0794
     20 C         139.0691  138.6324  163.0063 C.ar    1  UNL1        0.0379
     21 C         139.5759  137.8446  161.8347 C.ar    1  UNL1        0.1216
     22 N         139.3364  138.6531  160.5941 N.ar    1  UNL1       -0.1676
     23 N         138.6815  139.9404  160.9989 N.ar    1  UNL1       -0.2488
     24 C         138.2650  141.0463  160.0751 C.3     1  UNL1        0.1537
     25 C         139.0394  138.3376  164.4767 C.ar    1  UNL1       -0.0008
@<TRIPOS>BOND
     1    10    11    1
     2    11    12   am
     3    12    13    2
     4    12     1    1
     5     1     2    2
     6     2     3    1
     7     3     4    2
     8     4     5    1
     9     5     6    2
    10     6     7    1
    11     7    15    1
    12    15    16    1
    13    16    17   ar
    14    17    18   ar
    15    18    19   ar
    16    19    20   ar
    17    20    21   ar
    18    21    22   ar
    19    22    23   ar
    20    23    24    1
    21    20    25   ar
    22     7     8    2
    23     8     9    1
    24     9     1    1
    25     8     4    1
    26    25    16   ar
    27    23    19   ar
    28    11    14    1
@<TRIPOS>MOLECULE
*****
 25 28 0 0 0
SMALL
GASTEIGER

@<TRIPOS>ATOM
      1 C         138.5310  140.2883  165.0167 C.2     1  UNL1        0.0356
      2 C         137.8670  139.2798  165.9066 C.2     1  UNL1        0.0021
      3 C         138.3946  139.0373  167.2896 C.2     1  UNL1        0.0205
      4 C         139.5861  139.8033  167.7828 C.2     1  UNL1        0.1004
      5 N         140.3250  139.7792  169.0880 N.2     1  UNL1       -0.1486
      6 N         141.4456  140.7728  169.0048 N.2     1  UNL1       -0.1523
      7 C         141.3994  141.4111  167.6481 C.2     1  UNL1        0.0827
      8 C         140.2501  140.8118  166.8929 C.2     1  UNL1        0.0174
      9 C         139.7226  141.0543  165.5098 C.3     1  UNL1        0.0601
     10 C         137.6626  139.7352  161.1839 C.3     1  UNL1        0.1109
     11 N         138.1902  139.4928  162.5670 N.am    1  UNL1       -0.2994
     12 C         138.0034  140.5307  163.6336 C.2     1  UNL1        0.2422
     13 O         137.2890  141.8111  163.3172 O.2     1  UNL1       -0.2705
     14 H         138.6591  138.6524  162.7747 H       1  UNL1        0.1498
     15 C         142.3376  142.4636  167.1365 C.3     1  UNL1        0.0736
     16 C         142.6858  142.5133  165.6783 C.ar    1  UNL1       -0.0160
     17 C         143.5913  141.4734  165.0876 C.ar    1  UNL1       -0.0024
     18 C         143.9394  141.5231  163.6294 C.ar    1  UNL1        0.0185
     19 C         143.3821  142.6125  162.7618 C.ar    1  UNL1        0.0794
     20 C         142.4766  143.6523  163.3526 C.ar    1  UNL1        0.0379
     21 C         142.0819  144.5990  162.2581 C.ar    1  UNL1        0.1216
     22 N         142.7435  144.1444  160.9910 N.ar    1  UNL1       -0.1676
     23 N         143.5470  142.9166  161.3023 N.ar    1  UNL1       -0.2488
     24 C         144.3709  142.1309  160.3256 C.3     1  UNL1        0.1537
     25 C         142.1284  143.6026  164.8108 C.ar    1  UNL1       -0.0008
@<TRIPOS>BOND
     1    10    11    1
     2    11    12   am
     3    12    13    2
     4    12     1    1
     5     1     2    2
     6     2     3    1
     7     3     4    2
     8     4     5    1
     9     5     6    2
    10     6     7    1
    11     7    15    1
    12    15    16    1
    13    16    17   ar
    14    17    18   ar
    15    18    19   ar
    16    19    20   ar
    17    20    21   ar
    18    21    22   ar
    19    22    23   ar
    20    23    24    1
    21    20    25   ar
    22     7     8    2
    23     8     9    1
    24     9     1    1
    25     8     4    1
    26    25    16   ar
    27    23    19   ar
    28    11    14    1
@<TRIPOS>MOLECULE
*****
 25 28 0 0 0
SMALL
GASTEIGER

@<TRIPOS>ATOM
      1 C         139.7740  139.5388  166.0913 C.2     1  UNL1        0.0356
      2 C         139.2569  139.5034  167.4988 C.2     1  UNL1        0.0021
      3 C         139.9212  140.3259  168.5629 C.2     1  UNL1        0.0205
      4 C         141.1028  141.1837  168.2194 C.2     1  UNL1        0.1004
      5 N         141.9566  142.0954  169.0499 N.2     1  UNL1       -0.1486
      6 N         143.0014  142.6943  168.1556 N.2     1  UNL1       -0.1523
      7 C         142.7934  142.1527  166.7724 C.2     1  UNL1        0.0827
      8 C         141.6199  141.2191  166.8118 C.2     1  UNL1        0.0174
      9 C         140.9555  140.3967  165.7478 C.3     1  UNL1        0.0601
     10 C         138.3287  138.4276  162.5662 C.3     1  UNL1        0.1109
     11 N         138.9931  139.2500  163.6302 N.am    1  UNL1       -0.2994
     12 C         139.1096  138.7164  165.0272 C.2     1  UNL1        0.2422
     13 O         138.5617  137.3604  165.3602 O.2     1  UNL1       -0.2705
     14 H         139.3527  140.1400  163.4117 H       1  UNL1        0.1498
     15 C         143.6145  142.4862  165.5622 C.3     1  UNL1        0.0736
     16 C         142.9681  143.1291  164.3711 C.ar    1  UNL1       -0.0160
     17 C         143.6495  143.0893  163.0354 C.ar    1  UNL1       -0.0024
     18 C         143.0030  143.7322  161.8443 C.ar    1  UNL1        0.0185
     19 C         141.6751  144.4149  161.9888 C.ar    1  UNL1        0.0794
     20 C         140.9938  144.4546  163.3246 C.ar    1  UNL1        0.0379
     21 C         139.6992  145.1947  163.1627 C.ar    1  UNL1        0.1216
     22 N         139.5805  145.6124  161.7269 N.ar    1  UNL1       -0.1676
     23 N         140.8017  145.1304  161.0014 N.ar    1  UNL1       -0.2488
     24 C         141.0974  145.3291  159.5443 C.3     1  UNL1        0.1537
     25 C         141.6403  143.8117  164.5157 C.ar    1  UNL1       -0.0008
@<TRIPOS>BOND
     1    10    11    1
     2    11    12   am
     3    12    13    2
     4    12     1    1
     5     1     2    2
     6     2     3    1
     7     3     4    2
     8     4     5    1
     9     5     6    2
    10     6     7    1
    11     7    15    1
    12    15    16    1
    13    16    17   ar
    14    17    18   ar
    15    18    19   ar
    16    19    20   ar
    17    20    21   ar
    18    21    22   ar
    19    22    23   ar
    20    23    24    1
    21    20    25   ar
    22     7     8    2
    23     8     9    1
    24     9     1    1
    25     8     4    1
    26    25    16   ar
    27    23    19   ar
    28    11    14    1
@<TRIPOS>MOLECULE
*****
 25 28 0 0 0
SMALL
GASTEIGER

@<TRIPOS>ATOM
      1 C         143.1346  142.3145  169.7260 C.2     1  UNL1        0.0356
      2 C         143.2603  140.8386  169.9619 C.2     1  UNL1        0.0021
      3 C         142.3872  139.8812  169.2063 C.2     1  UNL1        0.0205
      4 C         141.3883  140.3998  168.2147 C.2     1  UNL1        0.1004
      5 N         140.3992  139.7028  167.3282 N.2     1  UNL1       -0.1486
      6 N         139.6622  140.7480  166.5443 N.2     1  UNL1       -0.1523
      7 C         140.1958  142.0910  166.9464 C.2     1  UNL1        0.0827
      8 C         141.2626  141.8757  167.9788 C.2     1  UNL1        0.0174
      9 C         142.1358  142.8331  168.7345 C.3     1  UNL1        0.0601
     10 C         146.3727  144.1504  171.1023 C.3     1  UNL1        0.1109
     11 N         145.4996  143.1930  170.3467 N.am    1  UNL1       -0.2994
     12 C         144.0078  143.2719  170.4817 C.2     1  UNL1        0.2422
     13 O         143.3892  144.3081  171.3724 O.2     1  UNL1       -0.2705
     14 H         145.9056  142.5129  169.7620 H       1  UNL1        0.1498
     15 C         139.7423  143.4165  166.4103 C.3     1  UNL1        0.0736
     16 C         140.0516  143.7978  164.9930 C.ar    1  UNL1       -0.0160
     17 C         139.0064  144.4682  164.1515 C.ar    1  UNL1       -0.0024
     18 C         139.3158  144.8495  162.7342 C.ar    1  UNL1        0.0185
     19 C         140.6704  144.5606  162.1583 C.ar    1  UNL1        0.0794
     20 C         141.7156  143.8902  162.9998 C.ar    1  UNL1        0.0379
     21 C         142.9523  143.7338  162.1655 C.ar    1  UNL1        0.1216
     22 N         142.6713  144.3075  160.8083 N.ar    1  UNL1       -0.1676
     23 N         141.2610  144.8185  160.8038 N.ar    1  UNL1       -0.2488
     24 C         140.5639  145.4725  159.6479 C.3     1  UNL1        0.1537
     25 C         141.4062  143.5089  164.4172 C.ar    1  UNL1       -0.0008
@<TRIPOS>BOND
     1    10    11    1
     2    11    12   am
     3    12    13    2
     4    12     1    1
     5     1     2    2
     6     2     3    1
     7     3     4    2
     8     4     5    1
     9     5     6    2
    10     6     7    1
    11     7    15    1
    12    15    16    1
    13    16    17   ar
    14    17    18   ar
    15    18    19   ar
    16    19    20   ar
    17    20    21   ar
    18    21    22   ar
    19    22    23   ar
    20    23    24    1
    21    20    25   ar
    22     7     8    2
    23     8     9    1
    24     9     1    1
    25     8     4    1
    26    25    16   ar
    27    23    19   ar
    28    11    14    1
@<TRIPOS>MOLECULE
*****
 25 28 0 0 0
SMALL
GASTEIGER

@<TRIPOS>ATOM
      1 C         141.9996  143.3844  162.9302 C.2     1  UNL1        0.0356
      2 C         141.4958  144.5339  162.1088 C.2     1  UNL1        0.0021
      3 C         140.0652  144.5639  161.6586 C.2     1  UNL1        0.0205
      4 C         139.1385  143.4443  162.0298 C.2     1  UNL1        0.1004
      5 N         137.6885  143.2013  161.7326 N.2     1  UNL1       -0.1486
      6 N         137.2962  141.9015  162.3702 N.2     1  UNL1       -0.1523
      7 C         138.5037  141.3412  163.0616 C.2     1  UNL1        0.0827
      8 C         139.6424  142.2948  162.8511 C.2     1  UNL1        0.0174
      9 C         141.0729  142.2648  163.3013 C.3     1  UNL1        0.0601
     10 C         145.6207  142.0312  163.8282 C.3     1  UNL1        0.1109
     11 N         144.1902  142.0612  163.3780 N.am    1  UNL1       -0.2994
     12 C         143.4301  143.3544  163.3804 C.2     1  UNL1        0.2422
     13 O         144.1006  144.6175  163.8330 O.2     1  UNL1       -0.2705
     14 H         143.7502  141.2322  163.0809 H       1  UNL1        0.1498
     15 C         138.5624  140.0535  163.8286 C.3     1  UNL1        0.0736
     16 C         139.5112  139.9099  164.9815 C.ar    1  UNL1       -0.0160
     17 C         139.1792  140.5276  166.3075 C.ar    1  UNL1       -0.0024
     18 C         140.1281  140.3839  167.4603 C.ar    1  UNL1        0.0185
     19 C         141.4089  139.6225  167.2872 C.ar    1  UNL1        0.0794
     20 C         141.7408  139.0049  165.9612 C.ar    1  UNL1        0.0379
     21 C         143.0676  138.3171  166.0894 C.ar    1  UNL1        0.1216
     22 N         143.5557  138.5097  167.4946 N.ar    1  UNL1       -0.1676
     23 N         142.5306  139.3165  168.2349 N.ar    1  UNL1       -0.2488
     24 C         142.6127  139.7425  169.6708 C.3     1  UNL1        0.1537
     25 C         140.7920  139.1485  164.8084 C.ar    1  UNL1       -0.0008
@<TRIPOS>BOND
     1    10    11    1
     2    11    12   am
     3    12    13    2
     4    12     1    1
     5     1     2    2
     6     2     3    1
     7     3     4    2
     8     4     5    1
     9     5     6    2
    10     6     7    1
    11     7    15    1
    12    15    16    1
    13    16    17   ar
    14    17    18   ar
    15    18    19   ar
    16    19    20   ar
    17    20    21   ar
    18    21    22   ar
    19    22    23   ar
    20    23    24    1
    21    20    25   ar
    22     7     8    2
    23     8     9    1
    24     9     1    1
    25     8     4    1
    26    25    16   ar
    27    23    19   ar
    28    11    14    1
