@<TRIPOS>MOLECULE
*****
 45 49 0 0 0
SMALL
GASTEIGER

@<TRIPOS>ATOM
      1 C         142.4198  142.7448  159.7255 C.ar    1  UNL1        0.0375
      2 C         141.9813  142.4781  158.3161 C.ar    1  UNL1        0.1031
      3 N         142.9792  142.0202  157.2941 N.ar    1  UNL1       -0.2121
      4 C         144.4157  141.8290  157.6815 C.ar    1  UNL1        0.2200
      5 N         144.8542  142.0957  159.0910 N.ar    1  UNL1       -0.2163
      6 C         143.8562  142.5536  160.1130 C.ar    1  UNL1        0.0836
      7 C         140.8955  144.6067  160.7054 C.ar    1  UNL1        0.1387
      8 C         139.8976  145.0645  161.7273 C.ar    1  UNL1        0.0369
      9 C         139.4259  144.1184  162.7915 C.ar    1  UNL1        0.0031
     10 C         139.9522  142.7144  162.8336 C.ar    1  UNL1       -0.0001
     11 C         140.9501  142.2566  161.8116 C.ar    1  UNL1        0.0031
     12 C         141.4218  143.2027  160.7475 C.ar    1  UNL1        0.0367
     13 C         139.4805  141.7683  163.8977 C.ar    1  UNL1       -0.0039
     14 C         140.0303  141.8705  165.2896 C.ar    1  UNL1       -0.0003
     15 C         139.5586  140.9244  166.3537 C.ar    1  UNL1        0.0011
     16 C         138.5372  139.8760  166.0260 C.ar    1  UNL1        0.0137
     17 C         137.9874  139.7737  164.6341 C.ar    1  UNL1       -0.0031
     18 C         138.4591  140.7198  163.5700 C.ar    1  UNL1       -0.0218
     19 C         137.9093  140.6175  162.1781 C.3     1  UNL1        0.0310
     20 C         138.0655  138.9298  167.0901 C.2     1  UNL1        0.0729
     21 O         138.3614  139.2156  168.5325 O.co2   1  UNL1       -0.5446
     22 O         137.2980  137.6979  166.7117 O.co2   1  UNL1       -0.5446
     23 C         140.5214  145.7979  158.4270 C.3     1  UNL1        0.2525
     24 O         141.3672  145.5528  159.6413 O.3     1  UNL1       -0.4714
     25 N         145.4136  141.3711  156.6596 N.pl3   1  UNL1       -0.2747
     26 C         146.6897  142.1345  156.4628 C.3     1  UNL1        0.1151
     27 C         145.1354  140.1498  155.8344 C.3     1  UNL1        0.1151
     28 C         144.2947  142.8203  161.5225 C.3     1  UNL1        0.1428
     29 N         144.0664  141.7882  162.5869 N.am    1  UNL1       -0.2380
     30 C         144.1131  140.3010  162.3973 C.2     1  UNL1        0.4055
     31 O         144.3961  139.5846  161.1102 O.2     1  UNL1       -0.2262
     32 O         143.8270  139.6558  163.7210 O.3     1  UNL1       -0.4319
     33 C         143.6036  140.7444  164.7286 C.3     1  UNL1        0.2122
     34 C         143.7515  142.0623  164.0276 C.3     1  UNL1        0.1233
     35 C         143.6096  143.4165  164.6569 C.3     1  UNL1        0.0258
     36 C         143.2876  140.5494  166.1818 C.ar    1  UNL1        0.0381
     37 C         143.2159  139.1649  166.7546 C.ar    1  UNL1        0.0981
     38 N         142.9000  138.9699  168.2079 N.ar    1  UNL1       -0.2426
     39 C         142.6557  140.1593  169.0885 C.ar    1  UNL1        0.1027
     40 C         142.7274  141.5439  168.5158 C.ar    1  UNL1        0.0903
     41 C         143.0434  141.7388  167.0625 C.ar    1  UNL1        0.0062
     42 C         142.4831  142.7333  169.3964 C.3     1  UNL1        0.4200
     43 F         142.2389  143.9228  170.2771 F       1  UNL1       -0.1658
     44 F         143.8930  142.6488  169.9016 F       1  UNL1       -0.1658
     45 F         141.0733  142.8179  168.8913 F       1  UNL1       -0.1658
@<TRIPOS>UNITY_ATOM_ATTR
21 1
charge -1
@<TRIPOS>BOND
     1    23    24    1
     2    24     7    1
     3     7     8   ar
     4     8     9   ar
     5     9    10   ar
     6    10    13    1
     7    13    14   ar
     8    14    15   ar
     9    15    16   ar
    10    16    20    1
    11    20    21   ar
    12    20    22   ar
    13    16    17   ar
    14    17    18   ar
    15    18    19    1
    16    10    11   ar
    17    11    12   ar
    18    12     1    1
    19     1     2   ar
    20     2     3   ar
    21     3     4   ar
    22     4    25    1
    23    25    26    1
    24    25    27    1
    25     4     5   ar
    26     5     6   ar
    27     6    28    1
    28    28    29    1
    29    29    30   am
    30    30    31    2
    31    30    32    1
    32    32    33    1
    33    33    36    1
    34    36    37   ar
    35    37    38   ar
    36    38    39   ar
    37    39    40   ar
    38    40    42    1
    39    42    43    1
    40    42    44    1
    41    42    45    1
    42    40    41   ar
    43    33    34    1
    44    34    35    1
    45    12     7   ar
    46     6     1   ar
    47    34    29    1
    48    18    13   ar
    49    41    36   ar
@<TRIPOS>MOLECULE
*****
 45 49 0 0 0
SMALL
GASTEIGER

@<TRIPOS>ATOM
      1 C         139.4887  141.1956  158.2181 C.ar    1  UNL1        0.0375
      2 C         138.1858  140.8800  157.5451 C.ar    1  UNL1        0.1031
      3 N         137.5848  141.8571  156.5787 N.ar    1  UNL1       -0.2121
      4 C         138.2866  143.1500  156.2853 C.ar    1  UNL1        0.2200
      5 N         139.5895  143.4656  156.9583 N.ar    1  UNL1       -0.2163
      6 C         140.1905  142.4884  157.9248 C.ar    1  UNL1        0.0836
      7 C         141.2374  139.3517  158.7585 C.ar    1  UNL1        0.1387
      8 C         141.8383  138.3745  159.7249 C.ar    1  UNL1        0.0369
      9 C         141.2916  138.2641  161.1173 C.ar    1  UNL1        0.0031
     10 C         140.1439  139.1309  161.5434 C.ar    1  UNL1       -0.0001
     11 C         139.5430  140.1080  160.5770 C.ar    1  UNL1        0.0031
     12 C         140.0897  140.2184  159.1845 C.ar    1  UNL1        0.0367
     13 C         139.5972  139.0204  162.9358 C.ar    1  UNL1       -0.0039
     14 C         139.6844  137.7180  163.6747 C.ar    1  UNL1       -0.0003
     15 C         139.1377  137.6076  165.0672 C.ar    1  UNL1        0.0011
     16 C         138.5038  138.7996  165.7207 C.ar    1  UNL1        0.0137
     17 C         138.4166  140.1021  164.9818 C.ar    1  UNL1       -0.0031
     18 C         138.9633  140.2125  163.5894 C.ar    1  UNL1       -0.0218
     19 C         138.8761  141.5150  162.8505 C.3     1  UNL1        0.0310
     20 C         137.9570  138.6892  167.1132 C.2     1  UNL1        0.0729
     21 O         138.5647  139.4940  168.2235 O.co2   1  UNL1       -0.5446
     22 O         136.8026  137.7740  167.3952 O.co2   1  UNL1       -0.5446
     23 C         143.2235  139.8258  157.1521 C.3     1  UNL1        0.2525
     24 O         141.7841  139.4621  157.3660 O.3     1  UNL1       -0.4714
     25 N         137.6856  144.1271  155.3189 N.pl3   1  UNL1       -0.2747
     26 C         136.6194  143.6783  154.3641 C.3     1  UNL1        0.1151
     27 C         138.1509  145.5531  155.3073 C.3     1  UNL1        0.1151
     28 C         141.4933  142.8041  158.5978 C.3     1  UNL1        0.1428
     29 N         141.5080  143.2620  160.0262 N.am    1  UNL1       -0.2380
     30 C         140.7299  144.4134  160.5908 C.2     1  UNL1        0.4055
     31 O         139.8007  145.3091  159.8265 O.2     1  UNL1       -0.2262
     32 O         141.0443  144.5120  162.0543 O.3     1  UNL1       -0.4319
     33 C         142.0167  143.4214  162.3939 C.3     1  UNL1        0.2122
     34 C         142.3032  142.6489  161.1405 C.3     1  UNL1        0.1233
     35 C         143.2234  141.4703  161.0221 C.3     1  UNL1        0.0258
     36 C         142.6000  143.1509  163.7490 C.ar    1  UNL1        0.0381
     37 C         143.7392  143.9851  164.2554 C.ar    1  UNL1        0.0981
     38 N         144.3226  143.7146  165.6105 N.ar    1  UNL1       -0.2426
     39 C         143.7668  142.6098  166.4594 C.ar    1  UNL1        0.1027
     40 C         142.6276  141.7755  165.9531 C.ar    1  UNL1        0.0903
     41 C         142.0443  142.0461  164.5979 C.ar    1  UNL1        0.0062
     42 C         142.0718  140.6707  166.8020 C.3     1  UNL1        0.4200
     43 F         141.5161  139.5660  167.6508 F       1  UNL1       -0.1658
     44 F         141.7186  139.8984  165.5655 F       1  UNL1       -0.1658
     45 F         142.4250  141.4431  168.0384 F       1  UNL1       -0.1658
@<TRIPOS>UNITY_ATOM_ATTR
21 1
charge -1
@<TRIPOS>BOND
     1    23    24    1
     2    24     7    1
     3     7     8   ar
     4     8     9   ar
     5     9    10   ar
     6    10    13    1
     7    13    14   ar
     8    14    15   ar
     9    15    16   ar
    10    16    20    1
    11    20    21   ar
    12    20    22   ar
    13    16    17   ar
    14    17    18   ar
    15    18    19    1
    16    10    11   ar
    17    11    12   ar
    18    12     1    1
    19     1     2   ar
    20     2     3   ar
    21     3     4   ar
    22     4    25    1
    23    25    26    1
    24    25    27    1
    25     4     5   ar
    26     5     6   ar
    27     6    28    1
    28    28    29    1
    29    29    30   am
    30    30    31    2
    31    30    32    1
    32    32    33    1
    33    33    36    1
    34    36    37   ar
    35    37    38   ar
    36    38    39   ar
    37    39    40   ar
    38    40    42    1
    39    42    43    1
    40    42    44    1
    41    42    45    1
    42    40    41   ar
    43    33    34    1
    44    34    35    1
    45    12     7   ar
    46     6     1   ar
    47    34    29    1
    48    18    13   ar
    49    41    36   ar
@<TRIPOS>MOLECULE
*****
 45 49 0 0 0
SMALL
GASTEIGER

@<TRIPOS>ATOM
      1 C         140.0630  141.5038  158.6315 C.ar    1  UNL1        0.0375
      2 C         139.0147  141.2316  157.5936 C.ar    1  UNL1        0.1031
      3 N         138.5694  142.3279  156.6719 N.ar    1  UNL1       -0.2121
      4 C         139.1723  143.6966  156.7879 C.ar    1  UNL1        0.2200
      5 N         140.2205  143.9688  157.8258 N.ar    1  UNL1       -0.2163
      6 C         140.6659  142.8724  158.7475 C.ar    1  UNL1        0.0836
      7 C         141.5708  139.4439  159.1144 C.ar    1  UNL1        0.1387
      8 C         142.0161  138.3475  160.0361 C.ar    1  UNL1        0.0369
      9 C         141.3988  138.2147  161.3968 C.ar    1  UNL1        0.0031
     10 C         140.3363  139.1782  161.8357 C.ar    1  UNL1       -0.0001
     11 C         139.8911  140.2746  160.9139 C.ar    1  UNL1        0.0031
     12 C         140.5083  140.4074  159.5532 C.ar    1  UNL1        0.0367
     13 C         139.7191  139.0454  163.1963 C.ar    1  UNL1       -0.0039
     14 C         138.7218  140.0607  163.6698 C.ar    1  UNL1       -0.0003
     15 C         138.1045  139.9279  165.0305 C.ar    1  UNL1        0.0011
     16 C         138.4847  138.7797  165.9176 C.ar    1  UNL1        0.0137
     17 C         139.4820  137.7643  165.4441 C.ar    1  UNL1       -0.0031
     18 C         140.0993  137.8972  164.0835 C.ar    1  UNL1       -0.0218
     19 C         141.0967  136.8817  163.6100 C.3     1  UNL1        0.0310
     20 C         137.8674  138.6469  167.2783 C.2     1  UNL1        0.0729
     21 O         136.7052  137.7221  167.4876 O.co2   1  UNL1       -0.5446
     22 O         138.4125  139.4388  168.4297 O.co2   1  UNL1       -0.5446
     23 C         143.5980  140.0692  157.6146 C.3     1  UNL1        0.2525
     24 O         142.1880  139.5767  157.7537 O.3     1  UNL1       -0.4714
     25 N         138.7269  144.7929  155.8662 N.pl3   1  UNL1       -0.2747
     26 C         139.5405  146.0472  155.7445 C.3     1  UNL1        0.1151
     27 C         137.4681  144.6349  155.0661 C.3     1  UNL1        0.1151
     28 C         141.7141  143.1446  159.7854 C.3     1  UNL1        0.1428
     29 N         141.3509  143.1276  161.2407 N.am    1  UNL1       -0.2380
     30 C         140.2277  143.8907  161.8780 C.2     1  UNL1        0.4055
     31 O         139.2706  144.8047  161.1720 O.2     1  UNL1       -0.2262
     32 O         140.2297  143.5793  163.3454 O.3     1  UNL1       -0.4319
     33 C         141.3541  142.6237  163.6148 C.3     1  UNL1        0.2122
     34 C         142.0470  142.3445  162.3141 C.3     1  UNL1        0.1233
     35 C         143.2286  141.4410  162.1206 C.3     1  UNL1        0.0258
     36 C         141.7212  142.0483  164.9505 C.ar    1  UNL1        0.0381
     37 C         141.4934  142.8471  166.1995 C.ar    1  UNL1        0.0981
     38 N         141.8605  142.2717  167.5352 N.ar    1  UNL1       -0.2426
     39 C         142.4553  140.8974  167.6220 C.ar    1  UNL1        0.1027
     40 C         142.6831  140.0985  166.3729 C.ar    1  UNL1        0.0903
     41 C         142.3160  140.6740  165.0373 C.ar    1  UNL1        0.0062
     42 C         143.2779  138.7242  166.4597 C.3     1  UNL1        0.4200
     43 F         143.8727  137.3499  166.5465 F       1  UNL1       -0.1658
     44 F         143.0518  138.7200  167.9426 F       1  UNL1       -0.1658
     45 F         143.5040  138.7284  164.9768 F       1  UNL1       -0.1658
@<TRIPOS>UNITY_ATOM_ATTR
21 1
charge -1
@<TRIPOS>BOND
     1    23    24    1
     2    24     7    1
     3     7     8   ar
     4     8     9   ar
     5     9    10   ar
     6    10    13    1
     7    13    14   ar
     8    14    15   ar
     9    15    16   ar
    10    16    20    1
    11    20    21   ar
    12    20    22   ar
    13    16    17   ar
    14    17    18   ar
    15    18    19    1
    16    10    11   ar
    17    11    12   ar
    18    12     1    1
    19     1     2   ar
    20     2     3   ar
    21     3     4   ar
    22     4    25    1
    23    25    26    1
    24    25    27    1
    25     4     5   ar
    26     5     6   ar
    27     6    28    1
    28    28    29    1
    29    29    30   am
    30    30    31    2
    31    30    32    1
    32    32    33    1
    33    33    36    1
    34    36    37   ar
    35    37    38   ar
    36    38    39   ar
    37    39    40   ar
    38    40    42    1
    39    42    43    1
    40    42    44    1
    41    42    45    1
    42    40    41   ar
    43    33    34    1
    44    34    35    1
    45    12     7   ar
    46     6     1   ar
    47    34    29    1
    48    18    13   ar
    49    41    36   ar
@<TRIPOS>MOLECULE
*****
 45 49 0 0 0
SMALL
GASTEIGER

@<TRIPOS>ATOM
      1 C         141.2987  139.5172  158.8216 C.ar    1  UNL1        0.0375
      2 C         140.4003  138.7184  157.9245 C.ar    1  UNL1        0.1031
      3 N         140.9907  137.7664  156.9270 N.ar    1  UNL1       -0.2121
      4 C         142.4795  137.6130  156.8266 C.ar    1  UNL1        0.2200
      5 N         143.3778  138.4118  157.7238 N.ar    1  UNL1       -0.2163
      6 C         142.7874  139.3639  158.7213 C.ar    1  UNL1        0.0836
      7 C         140.5424  141.9177  159.4664 C.ar    1  UNL1        0.1387
      8 C         139.9520  142.8697  160.4639 C.ar    1  UNL1        0.0369
      9 C         139.5273  142.3733  161.8141 C.ar    1  UNL1        0.0031
     10 C         139.6931  140.9248  162.1669 C.ar    1  UNL1       -0.0001
     11 C         140.2836  139.9728  161.1694 C.ar    1  UNL1        0.0031
     12 C         140.7082  140.4693  159.8192 C.ar    1  UNL1        0.0367
     13 C         139.2685  140.4284  163.5172 C.ar    1  UNL1       -0.0039
     14 C         138.5786  139.1027  163.6460 C.ar    1  UNL1       -0.0003
     15 C         138.1540  138.6063  164.9963 C.ar    1  UNL1        0.0011
     16 C         138.4193  139.4355  166.2178 C.ar    1  UNL1        0.0137
     17 C         139.1092  140.7612  166.0889 C.ar    1  UNL1       -0.0031
     18 C         139.5338  141.2576  164.7386 C.ar    1  UNL1       -0.0218
     19 C         140.2237  142.5833  164.6099 C.3     1  UNL1        0.0310
     20 C         137.9946  138.9391  167.5680 C.2     1  UNL1        0.0729
     21 O         136.9723  137.8470  167.6782 O.co2   1  UNL1       -0.5446
     22 O         138.5923  139.5347  168.8081 O.co2   1  UNL1       -0.5446
     23 C         139.9445  142.6261  157.0393 C.3     1  UNL1        0.2525
     24 O         140.9670  142.4141  158.1161 O.3     1  UNL1       -0.4714
     25 N         143.0699  136.6610  155.8292 N.pl3   1  UNL1       -0.2747
     26 C         144.4793  136.8523  155.3529 C.3     1  UNL1        0.1151
     27 C         142.2508  135.5176  155.3080 C.3     1  UNL1        0.1151
     28 C         143.6858  140.1626  159.6185 C.3     1  UNL1        0.1428
     29 N         143.6990  139.8978  161.0950 N.am    1  UNL1       -0.2380
     30 C         143.9096  138.5647  161.7496 C.2     1  UNL1        0.4055
     31 O         144.1439  137.2625  161.0430 O.2     1  UNL1       -0.2262
     32 O         143.8447  138.7626  163.2352 O.3     1  UNL1       -0.4319
     33 C         143.5941  140.2179  163.4985 C.3     1  UNL1        0.2122
     34 C         143.5040  140.9195  162.1757 C.3     1  UNL1        0.1233
     35 C         143.2615  142.3853  161.9699 C.3     1  UNL1        0.0258
     36 C         143.4574  140.8590  164.8476 C.ar    1  UNL1        0.0381
     37 C         143.9388  142.2633  165.0630 C.ar    1  UNL1        0.0981
     38 N         143.8022  142.9044  166.4121 N.ar    1  UNL1       -0.2426
     39 C         143.1842  142.1413  167.5460 C.ar    1  UNL1        0.1027
     40 C         142.7028  140.7370  167.3307 C.ar    1  UNL1        0.0903
     41 C         142.8395  140.0959  165.9815 C.ar    1  UNL1        0.0062
     42 C         142.0848  139.9739  168.4646 C.3     1  UNL1        0.4200
     43 F         141.4668  139.2108  169.5985 F       1  UNL1       -0.1658
     44 F         142.9620  138.7981  168.1514 F       1  UNL1       -0.1658
     45 F         141.2076  141.1496  168.7778 F       1  UNL1       -0.1658
@<TRIPOS>UNITY_ATOM_ATTR
21 1
charge -1
@<TRIPOS>BOND
     1    23    24    1
     2    24     7    1
     3     7     8   ar
     4     8     9   ar
     5     9    10   ar
     6    10    13    1
     7    13    14   ar
     8    14    15   ar
     9    15    16   ar
    10    16    20    1
    11    20    21   ar
    12    20    22   ar
    13    16    17   ar
    14    17    18   ar
    15    18    19    1
    16    10    11   ar
    17    11    12   ar
    18    12     1    1
    19     1     2   ar
    20     2     3   ar
    21     3     4   ar
    22     4    25    1
    23    25    26    1
    24    25    27    1
    25     4     5   ar
    26     5     6   ar
    27     6    28    1
    28    28    29    1
    29    29    30   am
    30    30    31    2
    31    30    32    1
    32    32    33    1
    33    33    36    1
    34    36    37   ar
    35    37    38   ar
    36    38    39   ar
    37    39    40   ar
    38    40    42    1
    39    42    43    1
    40    42    44    1
    41    42    45    1
    42    40    41   ar
    43    33    34    1
    44    34    35    1
    45    12     7   ar
    46     6     1   ar
    47    34    29    1
    48    18    13   ar
    49    41    36   ar
@<TRIPOS>MOLECULE
*****
 45 49 0 0 0
SMALL
GASTEIGER

@<TRIPOS>ATOM
      1 C         141.8669  142.3905  160.8931 C.ar    1  UNL1        0.0375
      2 C         142.8428  143.3762  160.3221 C.ar    1  UNL1        0.1031
      3 N         143.6990  142.9921  159.1520 N.ar    1  UNL1       -0.2121
      4 C         143.5795  141.6220  158.5529 C.ar    1  UNL1        0.2200
      5 N         142.6037  140.6363  159.1239 N.ar    1  UNL1       -0.2163
      6 C         141.7474  141.0206  160.2941 C.ar    1  UNL1        0.0836
      7 C         139.6201  143.2900  161.8380 C.ar    1  UNL1        0.1387
      8 C         138.7639  143.6742  163.0081 C.ar    1  UNL1        0.0369
      9 C         139.2983  143.5432  164.4036 C.ar    1  UNL1        0.0031
     10 C         140.6888  143.0280  164.6289 C.ar    1  UNL1       -0.0001
     11 C         141.5450  142.6438  163.4588 C.ar    1  UNL1        0.0031
     12 C         141.0107  142.7748  162.0633 C.ar    1  UNL1        0.0367
     13 C         141.2232  142.8970  166.0243 C.ar    1  UNL1       -0.0039
     14 C         140.3484  143.2291  167.1967 C.ar    1  UNL1       -0.0003
     15 C         140.8828  143.0981  168.5921 C.ar    1  UNL1        0.0011
     16 C         142.2919  142.6350  168.8152 C.ar    1  UNL1        0.0137
     17 C         143.1667  142.3030  167.6429 C.ar    1  UNL1       -0.0031
     18 C         142.6324  142.4340  166.2474 C.ar    1  UNL1       -0.0218
     19 C         143.5072  142.1019  165.0751 C.3     1  UNL1        0.0310
     20 C         142.8263  142.5040  170.2107 C.2     1  UNL1        0.0729
     21 O         143.1535  141.1490  170.7644 O.co2   1  UNL1       -0.5446
     22 O         143.0335  143.7281  171.0525 O.co2   1  UNL1       -0.5446
     23 C         138.2470  142.3252  159.8546 C.3     1  UNL1        0.2525
     24 O         139.0857  143.4210  160.4425 O.3     1  UNL1       -0.4714
     25 N         144.4357  141.2378  157.3828 N.pl3   1  UNL1       -0.2747
     26 C         144.0714  140.0479  156.5454 C.3     1  UNL1        0.1151
     27 C         145.6564  142.0436  157.0501 C.3     1  UNL1        0.1151
     28 C         140.7716  140.0348  160.8651 C.3     1  UNL1        0.1428
     29 N         140.8412  139.6659  162.3174 N.am    1  UNL1       -0.2380
     30 C         142.0651  139.2054  163.0523 C.2     1  UNL1        0.4055
     31 O         143.4341  139.0330  162.4641 O.2     1  UNL1       -0.2262
     32 O         141.6795  138.9477  164.4789 O.3     1  UNL1       -0.4319
     33 C         140.2174  139.2489  164.6256 C.3     1  UNL1        0.2122
     34 C         139.6993  139.6928  163.2897 C.3     1  UNL1        0.1233
     35 C         138.2873  140.0932  162.9803 C.3     1  UNL1        0.0258
     36 C         139.4143  139.1275  165.8866 C.ar    1  UNL1        0.0381
     37 C         138.1083  138.3898  165.8761 C.ar    1  UNL1        0.0981
     38 N         137.3053  138.2684  167.1371 N.ar    1  UNL1       -0.2426
     39 C         137.8082  138.8847  168.4088 C.ar    1  UNL1        0.1027
     40 C         139.1143  139.6225  168.4194 C.ar    1  UNL1        0.0903
     41 C         139.9173  139.7438  167.1583 C.ar    1  UNL1        0.0062
     42 C         139.6172  140.2388  169.6911 C.3     1  UNL1        0.4200
     43 F         140.1202  140.8552  170.9628 F       1  UNL1       -0.1658
     44 F         138.2377  140.7457  169.9910 F       1  UNL1       -0.1658
     45 F         140.9968  139.7320  169.3912 F       1  UNL1       -0.1658
@<TRIPOS>UNITY_ATOM_ATTR
21 1
charge -1
@<TRIPOS>BOND
     1    23    24    1
     2    24     7    1
     3     7     8   ar
     4     8     9   ar
     5     9    10   ar
     6    10    13    1
     7    13    14   ar
     8    14    15   ar
     9    15    16   ar
    10    16    20    1
    11    20    21   ar
    12    20    22   ar
    13    16    17   ar
    14    17    18   ar
    15    18    19    1
    16    10    11   ar
    17    11    12   ar
    18    12     1    1
    19     1     2   ar
    20     2     3   ar
    21     3     4   ar
    22     4    25    1
    23    25    26    1
    24    25    27    1
    25     4     5   ar
    26     5     6   ar
    27     6    28    1
    28    28    29    1
    29    29    30   am
    30    30    31    2
    31    30    32    1
    32    32    33    1
    33    33    36    1
    34    36    37   ar
    35    37    38   ar
    36    38    39   ar
    37    39    40   ar
    38    40    42    1
    39    42    43    1
    40    42    44    1
    41    42    45    1
    42    40    41   ar
    43    33    34    1
    44    34    35    1
    45    12     7   ar
    46     6     1   ar
    47    34    29    1
    48    18    13   ar
    49    41    36   ar
@<TRIPOS>MOLECULE
*****
 45 49 0 0 0
SMALL
GASTEIGER

@<TRIPOS>ATOM
      1 C         141.9139  140.8028  161.0705 C.ar    1  UNL1        0.0375
      2 C         143.0493  140.5343  160.1278 C.ar    1  UNL1        0.1031
      3 N         142.8345  139.6676  158.9226 N.ar    1  UNL1       -0.2121
      4 C         141.4841  139.0695  158.6599 C.ar    1  UNL1        0.2200
      5 N         140.3487  139.3380  159.6027 N.ar    1  UNL1       -0.2163
      6 C         140.5636  140.2047  160.8080 C.ar    1  UNL1        0.0836
      7 C         142.2097  143.1595  162.1234 C.ar    1  UNL1        0.1387
      8 C         142.4246  144.0261  163.3287 C.ar    1  UNL1        0.0369
      9 C         142.5586  143.4027  164.6864 C.ar    1  UNL1        0.0031
     10 C         142.4776  141.9127  164.8389 C.ar    1  UNL1       -0.0001
     11 C         142.2627  141.0461  163.6336 C.ar    1  UNL1        0.0031
     12 C         142.1288  141.6695  162.2758 C.ar    1  UNL1        0.0367
     13 C         142.6116  141.2894  166.1966 C.ar    1  UNL1       -0.0039
     14 C         142.7124  142.1590  167.4145 C.ar    1  UNL1       -0.0003
     15 C         142.8463  141.5357  168.7723 C.ar    1  UNL1        0.0011
     16 C         142.8795  140.0426  168.9121 C.ar    1  UNL1        0.0137
     17 C         142.7787  139.1729  167.6941 C.ar    1  UNL1       -0.0031
     18 C         142.6448  139.7963  166.3364 C.ar    1  UNL1       -0.0218
     19 C         142.5440  138.9265  165.1184 C.3     1  UNL1        0.0310
     20 C         143.0135  139.4192  170.2698 C.2     1  UNL1        0.0729
     21 O         143.2800  137.9486  170.3969 O.co2   1  UNL1       -0.5446
     22 O         142.8809  140.2664  171.5005 O.co2   1  UNL1       -0.5446
     23 C         140.7169  143.9820  160.1625 C.3     1  UNL1        0.2525
     24 O         142.0758  143.7829  160.7657 O.3     1  UNL1       -0.4714
     25 N         141.2693  138.2028  157.4547 N.pl3   1  UNL1       -0.2747
     26 C         139.9099  138.1150  156.8268 C.3     1  UNL1        0.1151
     27 C         142.4138  137.4240  156.8773 C.3     1  UNL1        0.1151
     28 C         139.4282  140.4733  161.7507 C.3     1  UNL1        0.1428
     29 N         139.2966  139.6740  163.0132 N.am    1  UNL1       -0.2380
     30 C         139.5813  138.2089  163.1629 C.2     1  UNL1        0.4055
     31 O         140.0476  137.2858  162.0764 O.2     1  UNL1       -0.2262
     32 O         139.3179  137.8289  164.5899 O.3     1  UNL1       -0.4319
     33 C         138.8704  139.0593  165.3221 C.3     1  UNL1        0.2122
     34 C         138.8572  140.1995  164.3477 C.3     1  UNL1        0.1233
     35 C         138.4723  141.6166  164.6538 C.3     1  UNL1        0.0258
     36 C         138.5009  139.1358  166.7738 C.ar    1  UNL1        0.0381
     37 C         137.3637  138.3130  167.3028 C.ar    1  UNL1        0.0981
     38 N         136.9942  138.3895  168.7545 N.ar    1  UNL1       -0.2426
     39 C         137.7619  139.2889  169.6774 C.ar    1  UNL1        0.1027
     40 C         138.8992  140.1118  169.1485 C.ar    1  UNL1        0.0903
     41 C         139.2686  140.0352  167.6967 C.ar    1  UNL1        0.0062
     42 C         139.6668  141.0112  170.0714 C.3     1  UNL1        0.4200
     43 F         140.4345  141.9106  170.9942 F       1  UNL1       -0.1658
     44 F         139.7151  139.9177  171.0969 F       1  UNL1       -0.1658
     45 F         139.6186  142.1048  169.0458 F       1  UNL1       -0.1658
@<TRIPOS>UNITY_ATOM_ATTR
21 1
charge -1
@<TRIPOS>BOND
     1    23    24    1
     2    24     7    1
     3     7     8   ar
     4     8     9   ar
     5     9    10   ar
     6    10    13    1
     7    13    14   ar
     8    14    15   ar
     9    15    16   ar
    10    16    20    1
    11    20    21   ar
    12    20    22   ar
    13    16    17   ar
    14    17    18   ar
    15    18    19    1
    16    10    11   ar
    17    11    12   ar
    18    12     1    1
    19     1     2   ar
    20     2     3   ar
    21     3     4   ar
    22     4    25    1
    23    25    26    1
    24    25    27    1
    25     4     5   ar
    26     5     6   ar
    27     6    28    1
    28    28    29    1
    29    29    30   am
    30    30    31    2
    31    30    32    1
    32    32    33    1
    33    33    36    1
    34    36    37   ar
    35    37    38   ar
    36    38    39   ar
    37    39    40   ar
    38    40    42    1
    39    42    43    1
    40    42    44    1
    41    42    45    1
    42    40    41   ar
    43    33    34    1
    44    34    35    1
    45    12     7   ar
    46     6     1   ar
    47    34    29    1
    48    18    13   ar
    49    41    36   ar
@<TRIPOS>MOLECULE
*****
 45 49 0 0 0
SMALL
GASTEIGER

@<TRIPOS>ATOM
      1 C         142.4403  142.2395  160.0875 C.ar    1  UNL1        0.0375
      2 C         143.8749  141.9351  159.7728 C.ar    1  UNL1        0.1031
      3 N         144.2152  141.0221  158.6324 N.ar    1  UNL1       -0.2121
      4 C         143.1208  140.4135  157.8066 C.ar    1  UNL1        0.2200
      5 N         141.6861  140.7179  158.1213 N.ar    1  UNL1       -0.2163
      6 C         141.3459  141.6310  159.2618 C.ar    1  UNL1        0.0836
      7 C         141.7224  144.5792  160.9597 C.ar    1  UNL1        0.1387
      8 C         141.3822  145.4921  162.1002 C.ar    1  UNL1        0.0369
      9 C         141.4197  144.9784  163.5090 C.ar    1  UNL1        0.0031
     10 C         141.7973  143.5518  163.7773 C.ar    1  UNL1       -0.0001
     11 C         142.1375  142.6389  162.6368 C.ar    1  UNL1        0.0031
     12 C         142.1001  143.1526  161.2280 C.ar    1  UNL1        0.0367
     13 C         141.8347  143.0381  165.1861 C.ar    1  UNL1       -0.0039
     14 C         140.5548  142.7810  165.9249 C.ar    1  UNL1       -0.0003
     15 C         140.5923  142.2673  167.3337 C.ar    1  UNL1        0.0011
     16 C         141.9095  142.0107  168.0037 C.ar    1  UNL1        0.0137
     17 C         143.1893  142.2678  167.2649 C.ar    1  UNL1       -0.0031
     18 C         143.1519  142.7815  165.8561 C.ar    1  UNL1       -0.0218
     19 C         144.4319  143.0385  165.1173 C.3     1  UNL1        0.0310
     20 C         141.9469  141.4970  169.4125 C.2     1  UNL1        0.0729
     21 O         143.2500  141.0712  170.0212 O.co2   1  UNL1       -0.5446
     22 O         140.6812  141.4091  170.2126 O.co2   1  UNL1       -0.5446
     23 C         140.3812  145.5144  158.9407 C.3     1  UNL1        0.2525
     24 O         141.6850  145.0929  159.5509 O.3     1  UNL1       -0.4714
     25 N         143.4610  139.5005  156.6661 N.pl3   1  UNL1       -0.2747
     26 C         142.6387  138.2706  156.4189 C.3     1  UNL1        0.1151
     27 C         144.6236  139.8175  155.7729 C.3     1  UNL1        0.1151
     28 C         139.9112  141.9354  159.5765 C.3     1  UNL1        0.1428
     29 N         139.3559  141.6127  160.9321 N.am    1  UNL1       -0.2380
     30 C         138.5933  142.5519  161.8189 C.2     1  UNL1        0.4055
     31 O         138.2521  143.9786  161.5058 O.2     1  UNL1       -0.2262
     32 O         138.2318  141.8138  163.0738 O.3     1  UNL1       -0.4319
     33 C         138.7711  140.4185  162.9625 C.3     1  UNL1        0.2122
     34 C         139.4658  140.2942  161.6389 C.3     1  UNL1        0.1233
     35 C         140.1502  139.0670  161.1141 C.3     1  UNL1        0.0258
     36 C         138.6388  139.3373  163.9937 C.ar    1  UNL1        0.0381
     37 C         138.8166  137.9005  163.6011 C.ar    1  UNL1        0.0981
     38 N         138.6844  136.8194  164.6323 N.ar    1  UNL1       -0.2426
     39 C         138.3743  137.1749  166.0562 C.ar    1  UNL1        0.1027
     40 C         138.1965  138.6117  166.4489 C.ar    1  UNL1        0.0903
     41 C         138.3287  139.6928  165.4175 C.ar    1  UNL1        0.0062
     42 C         137.8864  138.9672  167.8728 C.3     1  UNL1        0.4200
     43 F         137.5763  139.3227  169.2966 F       1  UNL1       -0.1658
     44 F         139.1176  139.8222  167.9274 F       1  UNL1       -0.1658
     45 F         136.6551  138.1123  167.8181 F       1  UNL1       -0.1658
@<TRIPOS>UNITY_ATOM_ATTR
21 1
charge -1
@<TRIPOS>BOND
     1    23    24    1
     2    24     7    1
     3     7     8   ar
     4     8     9   ar
     5     9    10   ar
     6    10    13    1
     7    13    14   ar
     8    14    15   ar
     9    15    16   ar
    10    16    20    1
    11    20    21   ar
    12    20    22   ar
    13    16    17   ar
    14    17    18   ar
    15    18    19    1
    16    10    11   ar
    17    11    12   ar
    18    12     1    1
    19     1     2   ar
    20     2     3   ar
    21     3     4   ar
    22     4    25    1
    23    25    26    1
    24    25    27    1
    25     4     5   ar
    26     5     6   ar
    27     6    28    1
    28    28    29    1
    29    29    30   am
    30    30    31    2
    31    30    32    1
    32    32    33    1
    33    33    36    1
    34    36    37   ar
    35    37    38   ar
    36    38    39   ar
    37    39    40   ar
    38    40    42    1
    39    42    43    1
    40    42    44    1
    41    42    45    1
    42    40    41   ar
    43    33    34    1
    44    34    35    1
    45    12     7   ar
    46     6     1   ar
    47    34    29    1
    48    18    13   ar
    49    41    36   ar
@<TRIPOS>MOLECULE
*****
 45 49 0 0 0
SMALL
GASTEIGER

@<TRIPOS>ATOM
      1 C         141.3988  138.7014  158.1758 C.ar    1  UNL1        0.0375
      2 C         141.5260  137.2973  157.6635 C.ar    1  UNL1        0.1031
      3 N         140.9391  136.9282  156.3334 N.ar    1  UNL1       -0.2121
      4 C         140.2250  137.9632  155.5155 C.ar    1  UNL1        0.2200
      5 N         140.0978  139.3673  156.0277 N.ar    1  UNL1       -0.2163
      6 C         140.6848  139.7363  157.3580 C.ar    1  UNL1        0.0836
      7 C         143.4042  139.5505  159.5927 C.ar    1  UNL1        0.1387
      8 C         143.9910  139.9195  160.9229 C.ar    1  UNL1        0.0369
      9 C         143.1595  139.8085  162.1663 C.ar    1  UNL1        0.0031
     10 C         141.7410  139.3285  162.0796 C.ar    1  UNL1       -0.0001
     11 C         141.1542  138.9594  160.7495 C.ar    1  UNL1        0.0031
     12 C         141.9857  139.0704  159.5060 C.ar    1  UNL1        0.0367
     13 C         140.9095  139.2174  163.3231 C.ar    1  UNL1       -0.0039
     14 C         139.4199  139.0749  163.2189 C.ar    1  UNL1       -0.0003
     15 C         138.5884  138.9639  164.4624 C.ar    1  UNL1        0.0011
     16 C         139.2463  138.9954  165.8100 C.ar    1  UNL1        0.0137
     17 C         140.7359  139.1379  165.9141 C.ar    1  UNL1       -0.0031
     18 C         141.5675  139.2490  164.6706 C.ar    1  UNL1       -0.0218
     19 C         143.0571  139.3915  164.7748 C.3     1  UNL1        0.0310
     20 C         138.4148  138.8844  167.0534 C.2     1  UNL1        0.0729
     21 O         137.1300  138.1106  167.0299 O.co2   1  UNL1       -0.5446
     22 O         138.8680  139.5472  168.3204 O.co2   1  UNL1       -0.5446
     23 C         144.4756  141.0040  157.7247 C.3     1  UNL1        0.2525
     24 O         144.2357  139.6615  158.3493 O.3     1  UNL1       -0.4714
     25 N         139.6381  137.5941  154.1853 N.pl3   1  UNL1       -0.2747
     26 C         138.1513  137.6196  153.9885 C.3     1  UNL1        0.1151
     27 C         140.5380  137.1995  153.0521 C.3     1  UNL1        0.1151
     28 C         140.5576  141.1404  157.8702 C.3     1  UNL1        0.1428
     29 N         139.7504  141.4185  159.1036 N.am    1  UNL1       -0.2380
     30 C         138.3433  140.9650  159.3572 C.2     1  UNL1        0.4055
     31 O         137.4962  140.1539  158.4220 O.2     1  UNL1       -0.2262
     32 O         137.9318  141.4652  160.7103 O.3     1  UNL1       -0.4319
     33 C         139.0848  142.2278  161.2928 C.3     1  UNL1        0.2122
     34 C         140.2087  142.1989  160.2999 C.3     1  UNL1        0.1233
     35 C         141.5546  142.8382  160.4727 C.3     1  UNL1        0.0258
     36 C         139.1094  142.9009  162.6330 C.ar    1  UNL1        0.0381
     37 C         138.1207  143.9845  162.9464 C.ar    1  UNL1        0.0981
     38 N         138.1453  144.6577  164.2865 N.ar    1  UNL1       -0.2426
     39 C         139.1588  144.2474  165.3134 C.ar    1  UNL1        0.1027
     40 C         140.1476  143.1638  165.0001 C.ar    1  UNL1        0.0903
     41 C         140.1229  142.4906  163.6599 C.ar    1  UNL1        0.0062
     42 C         141.1611  142.7535  166.0270 C.3     1  UNL1        0.4200
     43 F         142.1746  142.3431  167.0539 F       1  UNL1       -0.1658
     44 F         142.2635  143.2384  165.1329 F       1  UNL1       -0.1658
     45 F         140.0587  142.2685  166.9212 F       1  UNL1       -0.1658
@<TRIPOS>UNITY_ATOM_ATTR
21 1
charge -1
@<TRIPOS>BOND
     1    23    24    1
     2    24     7    1
     3     7     8   ar
     4     8     9   ar
     5     9    10   ar
     6    10    13    1
     7    13    14   ar
     8    14    15   ar
     9    15    16   ar
    10    16    20    1
    11    20    21   ar
    12    20    22   ar
    13    16    17   ar
    14    17    18   ar
    15    18    19    1
    16    10    11   ar
    17    11    12   ar
    18    12     1    1
    19     1     2   ar
    20     2     3   ar
    21     3     4   ar
    22     4    25    1
    23    25    26    1
    24    25    27    1
    25     4     5   ar
    26     5     6   ar
    27     6    28    1
    28    28    29    1
    29    29    30   am
    30    30    31    2
    31    30    32    1
    32    32    33    1
    33    33    36    1
    34    36    37   ar
    35    37    38   ar
    36    38    39   ar
    37    39    40   ar
    38    40    42    1
    39    42    43    1
    40    42    44    1
    41    42    45    1
    42    40    41   ar
    43    33    34    1
    44    34    35    1
    45    12     7   ar
    46     6     1   ar
    47    34    29    1
    48    18    13   ar
    49    41    36   ar
@<TRIPOS>MOLECULE
*****
 45 49 0 0 0
SMALL
GASTEIGER

@<TRIPOS>ATOM
      1 C         142.9503  139.8819  161.6721 C.ar    1  UNL1        0.0375
      2 C         143.4943  138.5103  161.4024 C.ar    1  UNL1        0.1031
      3 N         143.0968  137.7775  160.1554 N.ar    1  UNL1       -0.2121
      4 C         142.1552  138.4164  159.1780 C.ar    1  UNL1        0.2200
      5 N         141.6112  139.7881  159.4476 N.ar    1  UNL1       -0.2163
      6 C         142.0088  140.5208  160.6947 C.ar    1  UNL1        0.0836
      7 C         144.5319  141.5353  162.9029 C.ar    1  UNL1        0.1387
      8 C         144.9294  142.2680  164.1499 C.ar    1  UNL1        0.0369
      9 C         144.1428  142.0799  165.4132 C.ar    1  UNL1        0.0031
     10 C         142.9588  141.1593  165.4295 C.ar    1  UNL1       -0.0001
     11 C         142.5613  140.4266  164.1825 C.ar    1  UNL1        0.0031
     12 C         143.3478  140.6146  162.9191 C.ar    1  UNL1        0.0367
     13 C         142.1722  140.9713  166.6928 C.ar    1  UNL1       -0.0039
     14 C         142.5783  139.9168  167.6792 C.ar    1  UNL1       -0.0003
     15 C         141.7917  139.7288  168.9426 C.ar    1  UNL1        0.0011
     16 C         140.5991  140.5953  169.2194 C.ar    1  UNL1        0.0137
     17 C         140.1929  141.6497  168.2330 C.ar    1  UNL1       -0.0031
     18 C         140.9795  141.8377  166.9697 C.ar    1  UNL1       -0.0218
     19 C         140.5733  142.8923  165.9832 C.3     1  UNL1        0.0310
     20 C         139.8125  140.4072  170.4828 C.2     1  UNL1        0.0729
     21 O         138.4108  139.8768  170.4216 O.co2   1  UNL1       -0.5446
     22 O         140.4276  140.7497  171.8072 O.co2   1  UNL1       -0.5446
     23 C         144.9800  142.8471  160.7056 C.3     1  UNL1        0.2525
     24 O         145.3185  141.7233  161.6396 O.3     1  UNL1       -0.4714
     25 N         141.7577  137.6837  157.9310 N.pl3   1  UNL1       -0.2747
     26 C         140.3757  137.8495  157.3719 C.3     1  UNL1        0.1151
     27 C         142.7422  136.7852  157.2430 C.3     1  UNL1        0.1151
     28 C         141.4648  141.8924  160.9643 C.3     1  UNL1        0.1428
     29 N         140.6242  142.5823  159.9311 N.am    1  UNL1       -0.2380
     30 C         139.1255  142.6430  159.9109 C.2     1  UNL1        0.4055
     31 O         138.2044  142.0244  160.9203 O.2     1  UNL1       -0.2262
     32 O         138.7097  143.4308  158.7040 O.3     1  UNL1       -0.4319
     33 C         139.9514  143.8570  157.9783 C.3     1  UNL1        0.2122
     34 C         141.1346  143.3326  158.7367 C.3     1  UNL1        0.1233
     35 C         142.5752  143.5248  158.3659 C.3     1  UNL1        0.0258
     36 C         140.0012  144.6656  156.7160 C.ar    1  UNL1        0.0381
     37 C         140.5712  144.0675  155.4641 C.ar    1  UNL1        0.0981
     38 N         140.6210  144.8761  154.2017 N.ar    1  UNL1       -0.2426
     39 C         140.1008  146.2829  154.1912 C.ar    1  UNL1        0.1027
     40 C         139.5308  146.8812  155.4432 C.ar    1  UNL1        0.0903
     41 C         139.4810  146.0725  156.7055 C.ar    1  UNL1        0.0062
     42 C         139.0106  148.2881  155.4327 C.3     1  UNL1        0.4200
     43 F         138.4904  149.6950  155.4222 F       1  UNL1       -0.1658
     44 F         139.3771  148.4128  153.9835 F       1  UNL1       -0.1658
     45 F         138.6441  148.1634  156.8819 F       1  UNL1       -0.1658
@<TRIPOS>UNITY_ATOM_ATTR
21 1
charge -1
@<TRIPOS>BOND
     1    23    24    1
     2    24     7    1
     3     7     8   ar
     4     8     9   ar
     5     9    10   ar
     6    10    13    1
     7    13    14   ar
     8    14    15   ar
     9    15    16   ar
    10    16    20    1
    11    20    21   ar
    12    20    22   ar
    13    16    17   ar
    14    17    18   ar
    15    18    19    1
    16    10    11   ar
    17    11    12   ar
    18    12     1    1
    19     1     2   ar
    20     2     3   ar
    21     3     4   ar
    22     4    25    1
    23    25    26    1
    24    25    27    1
    25     4     5   ar
    26     5     6   ar
    27     6    28    1
    28    28    29    1
    29    29    30   am
    30    30    31    2
    31    30    32    1
    32    32    33    1
    33    33    36    1
    34    36    37   ar
    35    37    38   ar
    36    38    39   ar
    37    39    40   ar
    38    40    42    1
    39    42    43    1
    40    42    44    1
    41    42    45    1
    42    40    41   ar
    43    33    34    1
    44    34    35    1
    45    12     7   ar
    46     6     1   ar
    47    34    29    1
    48    18    13   ar
    49    41    36   ar
