@<TRIPOS>MOLECULE
*****
 34 38 0 0 0
SMALL
GASTEIGER

@<TRIPOS>ATOM
      1 C         138.5653  139.9911  160.0462 C.ar    1  UNL1        0.0208
      2 C         139.3928  138.7403  160.0730 C.ar    1  UNL1        0.0013
      3 C         139.5243  137.9552  161.3443 C.ar    1  UNL1       -0.0029
      4 C         138.8283  138.4209  162.5889 C.ar    1  UNL1       -0.0061
      5 C         138.0009  139.6717  162.5620 C.ar    1  UNL1       -0.0029
      6 C         137.8694  140.4568  161.2907 C.ar    1  UNL1        0.0013
      7 N         137.3160  140.4765  157.8205 N.2     1  UNL1       -0.0829
      8 C         138.4338  140.7763  158.7749 C.2     1  UNL1        0.1194
      9 C         139.4199  141.8612  158.4580 C.ar    1  UNL1        0.0232
     10 C         140.5952  141.5711  157.5722 C.ar    1  UNL1        0.0041
     11 C         141.5813  142.6560  157.2553 C.ar    1  UNL1        0.0320
     12 C         141.3923  144.0310  157.8241 C.ar    1  UNL1        0.1674
     13 F         142.3784  145.1159  157.5072 F       1  UNL1       -0.2018
     14 C         140.2170  144.3211  158.7100 C.ar    1  UNL1        0.1674
     15 F         140.0279  145.6961  159.2788 F       1  UNL1       -0.2018
     16 C         139.2308  143.2362  159.0269 C.ar    1  UNL1        0.0336
     17 C         137.6993  140.6932  155.2600 C.3     1  UNL1        0.2885
     18 O         137.1845  141.2616  156.5492 O.2     1  UNL1       -0.3731
     19 C         138.9599  137.6357  163.8602 C.3     1  UNL1        0.0991
     20 N         139.1412  138.3493  165.1671 N.3     1  UNL1       -0.2688
     21 C         140.4071  139.1067  165.4387 C.3     1  UNL1        0.0751
     22 C         140.5884  139.8203  166.7455 C.3     1  UNL1        0.0489
     23 C         139.5038  139.7765  167.7808 C.3     1  UNL1        0.1157
     24 C         138.2379  139.0191  167.5092 C.3     1  UNL1        0.0489
     25 C         138.0566  138.3055  166.2023 C.3     1  UNL1        0.0751
     26 O         138.5125  139.8216  168.9056 O.3     1  UNL1       -0.3496
     27 C         139.1043  140.6433  170.0124 C.3     1  UNL1        0.1687
     28 C         140.4614  141.1059  169.5715 C.ar    1  UNL1        0.0108
     29 C         141.5042  141.9457  170.2476 C.ar    1  UNL1        0.0476
     30 C         142.7938  142.2499  169.5447 C.ar    1  UNL1        0.2221
     31 F         143.8366  143.0897  170.2209 F       1  UNL1       -0.1832
     32 N         143.0408  141.7142  168.1655 N.ar    1  UNL1       -0.2167
     33 C         141.9980  140.8743  167.4893 C.ar    1  UNL1        0.0990
     34 C         140.7083  140.5702  168.1923 C.ar    1  UNL1        0.0198
@<TRIPOS>BOND
     1    17    18    1
     2    18     7    1
     3     7     8    2
     4     8     1    1
     5     1     2   ar
     6     2     3   ar
     7     3     4   ar
     8     4    19    1
     9    19    20    1
    10    20    21    1
    11    21    22    1
    12    22    23    1
    13    23    24    1
    14    24    25    1
    15    23    26    1
    16    26    27    1
    17    27    28    1
    18    28    29   ar
    19    29    30   ar
    20    30    31    1
    21    30    32   ar
    22    32    33   ar
    23    33    34   ar
    24     4     5   ar
    25     5     6   ar
    26     8     9    1
    27     9    10   ar
    28    10    11   ar
    29    11    12   ar
    30    12    13    1
    31    12    14   ar
    32    14    15    1
    33    14    16   ar
    34     6     1   ar
    35    16     9   ar
    36    25    20    1
    37    34    28   ar
    38    34    23    1
@<TRIPOS>MOLECULE
*****
 34 38 0 0 0
SMALL
GASTEIGER

@<TRIPOS>ATOM
      1 C         141.6435  138.4004  159.9814 C.ar    1  UNL1        0.0208
      2 C         142.1504  137.7646  161.2419 C.ar    1  UNL1        0.0013
      3 C         141.2222  137.5531  162.4010 C.ar    1  UNL1       -0.0029
      4 C         139.7870  137.9774  162.2997 C.ar    1  UNL1       -0.0061
      5 C         139.2801  138.6132  161.0393 C.ar    1  UNL1       -0.0029
      6 C         140.2084  138.8247  159.8801 C.ar    1  UNL1        0.0013
      7 N         143.6764  139.6219  158.9206 N.2     1  UNL1       -0.0829
      8 C         142.5717  138.6119  158.8223 C.2     1  UNL1        0.1194
      9 C         142.3952  137.8135  157.5647 C.ar    1  UNL1        0.0232
     10 C         141.7548  138.4405  156.3619 C.ar    1  UNL1        0.0041
     11 C         141.5784  137.6421  155.1044 C.ar    1  UNL1        0.0320
     12 C         142.0423  136.2167  155.0496 C.ar    1  UNL1        0.1674
     13 F         141.8658  135.4183  153.7921 F       1  UNL1       -0.2018
     14 C         142.6827  135.5897  156.2525 C.ar    1  UNL1        0.1674
     15 F         143.1467  134.1643  156.1977 F       1  UNL1       -0.2018
     16 C         142.8592  136.3881  157.5100 C.ar    1  UNL1        0.0336
     17 C         145.0832  141.2149  157.4263 C.3     1  UNL1        0.2885
     18 O         144.6046  139.8334  157.7615 O.2     1  UNL1       -0.3731
     19 C         138.8588  137.7659  163.4589 C.3     1  UNL1        0.0991
     20 N         139.1432  138.4228  164.7771 N.3     1  UNL1       -0.2688
     21 C         140.4347  139.1566  164.9862 C.3     1  UNL1        0.0751
     22 C         140.7190  139.8135  166.3044 C.3     1  UNL1        0.0489
     23 C         139.7120  139.7366  167.4134 C.3     1  UNL1        0.1157
     24 C         138.4205  139.0029  167.2043 C.3     1  UNL1        0.0489
     25 C         138.1362  138.3460  165.8861 C.3     1  UNL1        0.0751
     26 O         138.8055  139.7441  168.6085 O.3     1  UNL1       -0.3496
     27 C         139.4861  140.5136  169.7017 C.3     1  UNL1        0.1687
     28 C         140.8132  140.9816  169.1821 C.ar    1  UNL1        0.0108
     29 C         141.9125  141.7829  169.8140 C.ar    1  UNL1        0.0476
     30 C         143.1513  142.1041  169.0318 C.ar    1  UNL1        0.2221
     31 F         144.2506  142.9055  169.6637 F       1  UNL1       -0.1832
     32 N         143.2910  141.6240  167.6175 N.ar    1  UNL1       -0.2167
     33 C         142.1917  140.8226  166.9856 C.ar    1  UNL1        0.0990
     34 C         140.9528  140.5014  167.7679 C.ar    1  UNL1        0.0198
@<TRIPOS>BOND
     1    17    18    1
     2    18     7    1
     3     7     8    2
     4     8     1    1
     5     1     2   ar
     6     2     3   ar
     7     3     4   ar
     8     4    19    1
     9    19    20    1
    10    20    21    1
    11    21    22    1
    12    22    23    1
    13    23    24    1
    14    24    25    1
    15    23    26    1
    16    26    27    1
    17    27    28    1
    18    28    29   ar
    19    29    30   ar
    20    30    31    1
    21    30    32   ar
    22    32    33   ar
    23    33    34   ar
    24     4     5   ar
    25     5     6   ar
    26     8     9    1
    27     9    10   ar
    28    10    11   ar
    29    11    12   ar
    30    12    13    1
    31    12    14   ar
    32    14    15    1
    33    14    16   ar
    34     6     1   ar
    35    16     9   ar
    36    25    20    1
    37    34    28   ar
    38    34    23    1
@<TRIPOS>MOLECULE
*****
 34 38 0 0 0
SMALL
GASTEIGER

@<TRIPOS>ATOM
      1 C         142.7086  140.5349  160.1858 C.ar    1  UNL1        0.0208
      2 C         143.7086  140.8682  159.1186 C.ar    1  UNL1        0.0013
      3 C         143.6382  140.1852  157.7851 C.ar    1  UNL1       -0.0029
      4 C         142.5677  139.1687  157.5186 C.ar    1  UNL1       -0.0061
      5 C         141.5677  138.8354  158.5858 C.ar    1  UNL1       -0.0029
      6 C         141.6381  139.5185  159.9194 C.ar    1  UNL1        0.0013
      7 N         142.4757  142.6830  161.6286 N.2     1  UNL1       -0.0829
      8 C         142.7790  141.2180  161.5193 C.2     1  UNL1        0.1194
      9 C         143.1528  140.4362  162.7437 C.ar    1  UNL1        0.0232
     10 C         144.5968  140.2614  163.1101 C.ar    1  UNL1        0.0041
     11 C         144.9706  139.4796  164.3344 C.ar    1  UNL1        0.0320
     12 C         143.9004  138.8725  165.1924 C.ar    1  UNL1        0.1674
     13 F         144.2742  138.0907  166.4167 F       1  UNL1       -0.2018
     14 C         142.4563  139.0473  164.8260 C.ar    1  UNL1        0.1674
     15 F         141.3861  138.4403  165.6840 F       1  UNL1       -0.2018
     16 C         142.0825  139.8292  163.6017 C.ar    1  UNL1        0.0336
     17 C         143.8092  144.0550  163.3861 C.3     1  UNL1        0.2885
     18 O         142.5461  143.3661  162.9621 O.2     1  UNL1       -0.3731
     19 C         142.4973  138.4856  156.1851 C.3     1  UNL1        0.0991
     20 N         142.4008  136.9905  156.1124 N.3     1  UNL1       -0.2688
     21 C         143.3801  136.1383  156.8638 C.3     1  UNL1        0.0751
     22 C         143.2836  134.6432  156.7911 C.3     1  UNL1        0.0489
     23 C         142.2077  134.0003  155.9670 C.3     1  UNL1        0.1157
     24 C         141.2283  134.8524  155.2157 C.3     1  UNL1        0.0489
     25 C         141.3248  136.3475  155.2884 C.3     1  UNL1        0.0751
     26 O         141.1909  133.2192  155.1885 O.3     1  UNL1       -0.3496
     27 C         141.4658  131.7598  155.4004 C.3     1  UNL1        0.1687
     28 C         142.6525  131.6390  156.3100 C.ar    1  UNL1        0.0108
     29 C         143.3748  130.4471  156.8646 C.ar    1  UNL1        0.0476
     30 C         144.5555  130.6398  157.7693 C.ar    1  UNL1        0.2221
     31 F         145.2778  129.4479  158.3239 F       1  UNL1       -0.1832
     32 N         145.0141  132.0244  158.1196 N.ar    1  UNL1       -0.2167
     33 C         144.2918  133.2163  157.5650 C.ar    1  UNL1        0.0990
     34 C         143.1110  133.0236  156.6602 C.ar    1  UNL1        0.0198
@<TRIPOS>BOND
     1    17    18    1
     2    18     7    1
     3     7     8    2
     4     8     1    1
     5     1     2   ar
     6     2     3   ar
     7     3     4   ar
     8     4    19    1
     9    19    20    1
    10    20    21    1
    11    21    22    1
    12    22    23    1
    13    23    24    1
    14    24    25    1
    15    23    26    1
    16    26    27    1
    17    27    28    1
    18    28    29   ar
    19    29    30   ar
    20    30    31    1
    21    30    32   ar
    22    32    33   ar
    23    33    34   ar
    24     4     5   ar
    25     5     6   ar
    26     8     9    1
    27     9    10   ar
    28    10    11   ar
    29    11    12   ar
    30    12    13    1
    31    12    14   ar
    32    14    15    1
    33    14    16   ar
    34     6     1   ar
    35    16     9   ar
    36    25    20    1
    37    34    28   ar
    38    34    23    1
@<TRIPOS>MOLECULE
*****
 34 38 0 0 0
SMALL
GASTEIGER

@<TRIPOS>ATOM
      1 C         140.2398  139.2361  159.9517 C.ar    1  UNL1        0.0208
      2 C         139.6426  139.0608  158.5869 C.ar    1  UNL1        0.0013
      3 C         140.4378  138.4012  157.4994 C.ar    1  UNL1       -0.0029
      4 C         141.8302  137.9169  157.7767 C.ar    1  UNL1       -0.0061
      5 C         142.4273  138.0922  159.1416 C.ar    1  UNL1       -0.0029
      6 C         141.6321  138.7519  160.2290 C.ar    1  UNL1        0.0013
      7 N         138.2742  140.7664  160.6898 N.2     1  UNL1       -0.0829
      8 C         139.4446  139.8957  161.0392 C.2     1  UNL1        0.1194
      9 C         139.8199  139.6847  162.4761 C.ar    1  UNL1        0.0232
     10 C         140.7504  140.6441  163.1569 C.ar    1  UNL1        0.0041
     11 C         141.1257  140.4330  164.5938 C.ar    1  UNL1        0.0320
     12 C         140.5704  139.2626  165.3499 C.ar    1  UNL1        0.1674
     13 F         140.9456  139.0516  166.7867 F       1  UNL1       -0.2018
     14 C         139.6397  138.3032  164.6690 C.ar    1  UNL1        0.1674
     15 F         139.0844  137.1328  165.4251 F       1  UNL1       -0.2018
     16 C         139.2645  138.5142  163.2321 C.ar    1  UNL1        0.0336
     17 C         137.8547  142.7974  162.2546 C.3     1  UNL1        0.2885
     18 O         137.4790  141.4260  161.7772 O.2     1  UNL1       -0.3731
     19 C         142.6253  137.2573  156.6893 C.3     1  UNL1        0.0991
     20 N         142.5027  135.7798  156.4613 N.3     1  UNL1       -0.2688
     21 C         143.4178  134.8318  157.1782 C.3     1  UNL1        0.0751
     22 C         143.2952  133.3544  156.9502 C.3     1  UNL1        0.0489
     23 C         142.2575  132.8249  156.0053 C.3     1  UNL1        0.1157
     24 C         141.3425  133.7728  155.2884 C.3     1  UNL1        0.0489
     25 C         141.4651  135.2503  155.5164 C.3     1  UNL1        0.0751
     26 O         141.2734  132.1519  155.0951 O.3     1  UNL1       -0.3496
     27 C         141.5052  130.6719  155.1747 C.3     1  UNL1        0.1687
     28 C         142.6326  130.4304  156.1342 C.ar    1  UNL1        0.0108
     29 C         143.2959  129.1707  156.6068 C.ar    1  UNL1        0.0476
     30 C         144.4242  129.2416  157.5926 C.ar    1  UNL1        0.2221
     31 F         145.0875  127.9820  158.0652 F       1  UNL1       -0.1832
     32 N         144.8892  130.5722  158.1060 N.ar    1  UNL1       -0.2167
     33 C         144.2259  131.8318  157.6334 C.ar    1  UNL1        0.0990
     34 C         143.0976  131.7609  156.6475 C.ar    1  UNL1        0.0198
@<TRIPOS>BOND
     1    17    18    1
     2    18     7    1
     3     7     8    2
     4     8     1    1
     5     1     2   ar
     6     2     3   ar
     7     3     4   ar
     8     4    19    1
     9    19    20    1
    10    20    21    1
    11    21    22    1
    12    22    23    1
    13    23    24    1
    14    24    25    1
    15    23    26    1
    16    26    27    1
    17    27    28    1
    18    28    29   ar
    19    29    30   ar
    20    30    31    1
    21    30    32   ar
    22    32    33   ar
    23    33    34   ar
    24     4     5   ar
    25     5     6   ar
    26     8     9    1
    27     9    10   ar
    28    10    11   ar
    29    11    12   ar
    30    12    13    1
    31    12    14   ar
    32    14    15    1
    33    14    16   ar
    34     6     1   ar
    35    16     9   ar
    36    25    20    1
    37    34    28   ar
    38    34    23    1
@<TRIPOS>MOLECULE
*****
 34 38 0 0 0
SMALL
GASTEIGER

@<TRIPOS>ATOM
      1 C         140.3376  142.7442  164.5899 C.ar    1  UNL1        0.0208
      2 C         139.3281  142.7174  163.4808 C.ar    1  UNL1        0.0013
      3 C         139.4787  143.6391  162.3070 C.ar    1  UNL1       -0.0029
      4 C         140.6389  144.5877  162.2424 C.ar    1  UNL1       -0.0061
      5 C         141.6485  144.6145  163.3515 C.ar    1  UNL1       -0.0029
      6 C         141.4978  143.6927  164.5252 C.ar    1  UNL1        0.0013
      7 N         139.3633  140.5752  165.6370 N.2     1  UNL1       -0.0829
      8 C         140.1869  141.8225  165.7636 C.2     1  UNL1        0.1194
      9 C         140.8599  142.1480  167.0641 C.ar    1  UNL1        0.0232
     10 C         142.2087  141.5706  167.3757 C.ar    1  UNL1        0.0041
     11 C         142.8817  141.8961  168.6762 C.ar    1  UNL1        0.0320
     12 C         142.2058  142.7990  169.6650 C.ar    1  UNL1        0.1674
     13 F         142.8787  143.1246  170.9655 F       1  UNL1       -0.2018
     14 C         140.8569  143.3766  169.3534 C.ar    1  UNL1        0.1674
     15 F         140.1810  144.2795  170.3422 F       1  UNL1       -0.2018
     16 C         140.1839  143.0510  168.0529 C.ar    1  UNL1        0.0336
     17 C         137.9769  138.8152  166.9522 C.3     1  UNL1        0.2885
     18 O         139.2127  139.6535  166.8107 O.2     1  UNL1       -0.3731
     19 C         140.7896  145.5094  161.0686 C.3     1  UNL1        0.0991
     20 N         141.3975  145.0061  159.7929 N.3     1  UNL1       -0.2688
     21 C         142.1618  143.7155  159.7844 C.3     1  UNL1        0.0751
     22 C         142.7697  143.2123  158.5088 C.3     1  UNL1        0.0489
     23 C         142.6133  143.9997  157.2417 C.3     1  UNL1        0.1157
     24 C         141.8490  145.2904  157.2502 C.3     1  UNL1        0.0489
     25 C         141.2411  145.7935  158.5259 C.3     1  UNL1        0.0751
     26 O         142.5405  144.6746  155.9041 O.3     1  UNL1       -0.3496
     27 C         143.2829  143.8252  154.9153 C.3     1  UNL1        0.1687
     28 C         143.8145  142.6254  155.6420 C.ar    1  UNL1        0.0108
     29 C         144.6220  141.4487  155.1802 C.ar    1  UNL1        0.0476
     30 C         145.0156  140.3798  156.1561 C.ar    1  UNL1        0.2221
     31 F         145.8230  139.2030  155.6944 F       1  UNL1       -0.1832
     32 N         144.6017  140.4876  157.5939 N.ar    1  UNL1       -0.2167
     33 C         143.7943  141.6644  158.0557 C.ar    1  UNL1        0.0990
     34 C         143.4007  142.7333  157.0797 C.ar    1  UNL1        0.0198
@<TRIPOS>BOND
     1    17    18    1
     2    18     7    1
     3     7     8    2
     4     8     1    1
     5     1     2   ar
     6     2     3   ar
     7     3     4   ar
     8     4    19    1
     9    19    20    1
    10    20    21    1
    11    21    22    1
    12    22    23    1
    13    23    24    1
    14    24    25    1
    15    23    26    1
    16    26    27    1
    17    27    28    1
    18    28    29   ar
    19    29    30   ar
    20    30    31    1
    21    30    32   ar
    22    32    33   ar
    23    33    34   ar
    24     4     5   ar
    25     5     6   ar
    26     8     9    1
    27     9    10   ar
    28    10    11   ar
    29    11    12   ar
    30    12    13    1
    31    12    14   ar
    32    14    15    1
    33    14    16   ar
    34     6     1   ar
    35    16     9   ar
    36    25    20    1
    37    34    28   ar
    38    34    23    1
@<TRIPOS>MOLECULE
*****
 34 38 0 0 0
SMALL
GASTEIGER

@<TRIPOS>ATOM
      1 C         141.5956  136.6564  156.4473 C.ar    1  UNL1        0.0208
      2 C         142.5831  137.2282  157.4209 C.ar    1  UNL1        0.0013
      3 C         142.1600  138.3091  158.3708 C.ar    1  UNL1       -0.0029
      4 C         140.7492  138.8184  158.3472 C.ar    1  UNL1       -0.0061
      5 C         139.7617  138.2466  157.3737 C.ar    1  UNL1       -0.0029
      6 C         140.1849  137.1656  156.4237 C.ar    1  UNL1        0.0013
      7 N         141.9338  135.8024  154.0170 N.2     1  UNL1       -0.0829
      8 C         142.0187  135.5755  155.4973 C.2     1  UNL1        0.1194
      9 C         142.5269  134.2676  156.0276 C.ar    1  UNL1        0.0232
     10 C         141.8092  132.9934  155.6941 C.ar    1  UNL1        0.0041
     11 C         142.3173  131.6855  156.2244 C.ar    1  UNL1        0.0320
     12 C         143.5431  131.6518  157.0883 C.ar    1  UNL1        0.1674
     13 F         144.0513  130.3439  157.6186 F       1  UNL1       -0.2018
     14 C         144.2609  132.9261  157.4218 C.ar    1  UNL1        0.1674
     15 F         145.4866  132.8924  158.2857 F       1  UNL1       -0.2018
     16 C         143.7527  134.2340  156.8915 C.ar    1  UNL1        0.0336
     17 C         141.3708  134.1536  152.0898 C.3     1  UNL1        0.2885
     18 O         142.3569  134.7215  153.0670 O.2     1  UNL1       -0.3731
     19 C         140.3261  139.8993  159.2972 C.3     1  UNL1        0.0991
     20 N         140.0108  139.5624  160.7245 N.3     1  UNL1       -0.2688
     21 C         140.3197  140.5467  161.8133 C.3     1  UNL1        0.0751
     22 C         140.0044  140.2097  163.2405 C.3     1  UNL1        0.0489
     23 C         139.3802  138.8884  163.5789 C.3     1  UNL1        0.1157
     24 C         139.0713  137.9040  162.4900 C.3     1  UNL1        0.0489
     25 C         139.3866  138.2410  161.0628 C.3     1  UNL1        0.0751
     26 O         138.7590  137.6133  164.0673 O.3     1  UNL1       -0.3496
     27 C         138.6256  137.7042  165.5586 C.3     1  UNL1        0.1687
     28 C         139.1644  139.0354  165.9919 C.ar    1  UNL1        0.0108
     29 C         139.2906  139.6757  167.3425 C.ar    1  UNL1        0.0476
     30 C         139.8831  141.0478  167.4696 C.ar    1  UNL1        0.2221
     31 F         140.0093  141.6881  168.8202 F       1  UNL1       -0.1832
     32 N         140.3494  141.7797  166.2461 N.ar    1  UNL1       -0.2167
     33 C         140.2233  141.1394  164.8955 C.ar    1  UNL1        0.0990
     34 C         139.6307  139.7672  164.7685 C.ar    1  UNL1        0.0198
@<TRIPOS>BOND
     1    17    18    1
     2    18     7    1
     3     7     8    2
     4     8     1    1
     5     1     2   ar
     6     2     3   ar
     7     3     4   ar
     8     4    19    1
     9    19    20    1
    10    20    21    1
    11    21    22    1
    12    22    23    1
    13    23    24    1
    14    24    25    1
    15    23    26    1
    16    26    27    1
    17    27    28    1
    18    28    29   ar
    19    29    30   ar
    20    30    31    1
    21    30    32   ar
    22    32    33   ar
    23    33    34   ar
    24     4     5   ar
    25     5     6   ar
    26     8     9    1
    27     9    10   ar
    28    10    11   ar
    29    11    12   ar
    30    12    13    1
    31    12    14   ar
    32    14    15    1
    33    14    16   ar
    34     6     1   ar
    35    16     9   ar
    36    25    20    1
    37    34    28   ar
    38    34    23    1
@<TRIPOS>MOLECULE
*****
 34 38 0 0 0
SMALL
GASTEIGER

@<TRIPOS>ATOM
      1 C         142.3454  134.5695  155.1180 C.ar    1  UNL1        0.0208
      2 C         141.1985  135.4248  155.5686 C.ar    1  UNL1        0.0013
      3 C         141.4599  136.7737  156.1702 C.ar    1  UNL1       -0.0029
      4 C         142.8683  137.2674  156.3212 C.ar    1  UNL1       -0.0061
      5 C         144.0152  136.4121  155.8707 C.ar    1  UNL1       -0.0029
      6 C         143.7538  135.0631  155.2690 C.ar    1  UNL1        0.0013
      7 N         141.0656  133.0705  153.4254 N.2     1  UNL1       -0.0829
      8 C         142.0840  133.2205  154.5164 C.2     1  UNL1        0.1194
      9 C         142.8410  132.0216  155.0059 C.ar    1  UNL1        0.0232
     10 C         143.7673  131.2902  154.0802 C.ar    1  UNL1        0.0041
     11 C         144.5243  130.0913  154.5696 C.ar    1  UNL1        0.0320
     12 C         144.3549  129.6237  155.9847 C.ar    1  UNL1        0.1674
     13 F         145.1119  128.4248  156.4741 F       1  UNL1       -0.2018
     14 C         143.4285  130.3551  156.9105 C.ar    1  UNL1        0.1674
     15 F         143.2592  129.8875  158.3256 F       1  UNL1       -0.2018
     16 C         142.6716  131.5540  156.4211 C.ar    1  UNL1        0.0336
     17 C         139.7356  130.8389  153.3974 C.3     1  UNL1        0.2885
     18 O         140.8042  131.7215  152.8238 O.2     1  UNL1       -0.3731
     19 C         143.1297  138.6164  156.9228 C.3     1  UNL1        0.0991
     20 N         143.2206  138.7685  158.4123 N.3     1  UNL1       -0.2688
     21 C         143.7579  140.0372  159.0053 C.3     1  UNL1        0.0751
     22 C         143.8487  140.1892  160.4948 C.3     1  UNL1        0.0489
     23 C         143.4021  139.0726  161.3913 C.3     1  UNL1        0.1157
     24 C         142.8648  137.8040  160.7983 C.3     1  UNL1        0.0489
     25 C         142.7740  137.6519  159.3089 C.3     1  UNL1        0.0751
     26 O         142.9959  138.0479  162.4086 O.3     1  UNL1       -0.3496
     27 C         143.2579  138.6181  163.7711 C.3     1  UNL1        0.1687
     28 C         143.8260  139.9953  163.5958 C.ar    1  UNL1        0.0108
     29 C         144.2736  141.0298  164.5855 C.ar    1  UNL1        0.0476
     30 C         144.8103  142.3452  164.1044 C.ar    1  UNL1        0.2221
     31 F         145.2579  143.3797  165.0940 F       1  UNL1       -0.1832
     32 N         144.8995  142.6262  162.6336 N.ar    1  UNL1       -0.2167
     33 C         144.4519  141.5917  161.6440 C.ar    1  UNL1        0.0990
     34 C         143.9151  140.2762  162.1251 C.ar    1  UNL1        0.0198
@<TRIPOS>BOND
     1    17    18    1
     2    18     7    1
     3     7     8    2
     4     8     1    1
     5     1     2   ar
     6     2     3   ar
     7     3     4   ar
     8     4    19    1
     9    19    20    1
    10    20    21    1
    11    21    22    1
    12    22    23    1
    13    23    24    1
    14    24    25    1
    15    23    26    1
    16    26    27    1
    17    27    28    1
    18    28    29   ar
    19    29    30   ar
    20    30    31    1
    21    30    32   ar
    22    32    33   ar
    23    33    34   ar
    24     4     5   ar
    25     5     6   ar
    26     8     9    1
    27     9    10   ar
    28    10    11   ar
    29    11    12   ar
    30    12    13    1
    31    12    14   ar
    32    14    15    1
    33    14    16   ar
    34     6     1   ar
    35    16     9   ar
    36    25    20    1
    37    34    28   ar
    38    34    23    1
@<TRIPOS>MOLECULE
*****
 34 38 0 0 0
SMALL
GASTEIGER

@<TRIPOS>ATOM
      1 C         140.9445  138.7693  161.3121 C.ar    1  UNL1        0.0208
      2 C         142.3320  138.2083  161.2105 C.ar    1  UNL1        0.0013
      3 C         142.8815  137.8040  159.8746 C.ar    1  UNL1       -0.0029
      4 C         142.0435  137.9606  158.6404 C.ar    1  UNL1       -0.0061
      5 C         140.6560  138.5215  158.7420 C.ar    1  UNL1       -0.0029
      6 C         140.1066  138.9259  160.0780 C.ar    1  UNL1        0.0013
      7 N         140.6398  138.3124  163.8515 N.2     1  UNL1       -0.0829
      8 C         140.3950  139.1736  162.6480 C.2     1  UNL1        0.1194
      9 C         139.6008  140.4391  162.7804 C.ar    1  UNL1        0.0232
     10 C         138.1040  140.3805  162.8592 C.ar    1  UNL1        0.0041
     11 C         137.3097  141.6460  162.9916 C.ar    1  UNL1        0.0320
     12 C         138.0122  142.9702  163.0452 C.ar    1  UNL1        0.1674
     13 F         137.2179  144.2358  163.1776 F       1  UNL1       -0.2018
     14 C         139.5090  143.0290  162.9664 C.ar    1  UNL1        0.1674
     15 F         140.2115  144.3532  163.0200 F       1  UNL1       -0.2018
     16 C         140.3033  141.7634  162.8340 C.ar    1  UNL1        0.0336
     17 C         140.9203  139.5496  166.1188 C.3     1  UNL1        0.2885
     18 O         140.0903  138.7167  165.1874 O.2     1  UNL1       -0.3731
     19 C         142.5930  137.5563  157.3045 C.3     1  UNL1        0.0991
     20 N         142.4616  136.1367  156.8380 N.3     1  UNL1       -0.2688
     21 C         143.3278  135.0677  157.4353 C.3     1  UNL1        0.0751
     22 C         143.1965  133.6482  156.9688 C.3     1  UNL1        0.0489
     23 C         142.1988  133.2977  155.9049 C.3     1  UNL1        0.1157
     24 C         141.3326  134.3667  155.3075 C.3     1  UNL1        0.0489
     25 C         141.4640  135.7862  155.7741 C.3     1  UNL1        0.0751
     26 O         141.2510  132.7989  154.8547 O.3     1  UNL1       -0.3496
     27 C         141.4586  131.3206  154.7073 C.3     1  UNL1        0.1687
     28 C         142.5347  130.9058  155.6665 C.ar    1  UNL1        0.0108
     29 C         143.1572  129.5733  155.9616 C.ar    1  UNL1        0.0476
     30 C         144.2370  129.4627  156.9967 C.ar    1  UNL1        0.2221
     31 F         144.8595  128.1302  157.2918 F       1  UNL1       -0.1832
     32 N         144.6946  130.6846  157.7368 N.ar    1  UNL1       -0.2167
     33 C         144.0721  132.0170  157.4418 C.ar    1  UNL1        0.0990
     34 C         142.9922  132.1276  156.4066 C.ar    1  UNL1        0.0198
@<TRIPOS>BOND
     1    17    18    1
     2    18     7    1
     3     7     8    2
     4     8     1    1
     5     1     2   ar
     6     2     3   ar
     7     3     4   ar
     8     4    19    1
     9    19    20    1
    10    20    21    1
    11    21    22    1
    12    22    23    1
    13    23    24    1
    14    24    25    1
    15    23    26    1
    16    26    27    1
    17    27    28    1
    18    28    29   ar
    19    29    30   ar
    20    30    31    1
    21    30    32   ar
    22    32    33   ar
    23    33    34   ar
    24     4     5   ar
    25     5     6   ar
    26     8     9    1
    27     9    10   ar
    28    10    11   ar
    29    11    12   ar
    30    12    13    1
    31    12    14   ar
    32    14    15    1
    33    14    16   ar
    34     6     1   ar
    35    16     9   ar
    36    25    20    1
    37    34    28   ar
    38    34    23    1
@<TRIPOS>MOLECULE
*****
 34 38 0 0 0
SMALL
GASTEIGER

@<TRIPOS>ATOM
      1 C         142.1183  139.8564  161.4811 C.ar    1  UNL1        0.0208
      2 C         143.2606  140.3423  160.6390 C.ar    1  UNL1        0.0013
      3 C         143.3612  139.9285  159.2008 C.ar    1  UNL1       -0.0029
      4 C         142.3195  139.0289  158.6045 C.ar    1  UNL1       -0.0061
      5 C         141.1772  138.5430  159.4465 C.ar    1  UNL1       -0.0029
      6 C         141.0766  138.9568  160.8849 C.ar    1  UNL1        0.0013
      7 N         141.3861  139.3504  163.9220 N.2     1  UNL1       -0.0829
      8 C         142.0176  140.2702  162.9193 C.2     1  UNL1        0.1194
      9 C         142.5486  141.6037  163.3550 C.ar    1  UNL1        0.0232
     10 C         143.9052  141.7006  163.9876 C.ar    1  UNL1        0.0041
     11 C         144.4361  143.0341  164.4233 C.ar    1  UNL1        0.0320
     12 C         143.6104  144.2708  164.2265 C.ar    1  UNL1        0.1674
     13 F         144.1413  145.6043  164.6622 F       1  UNL1       -0.2018
     14 C         142.2537  144.1740  163.5939 C.ar    1  UNL1        0.1674
     15 F         141.4280  145.4107  163.3971 F       1  UNL1       -0.2018
     16 C         141.7228  142.8404  163.1582 C.ar    1  UNL1        0.0336
     17 C         140.0004  140.3275  165.8904 C.3     1  UNL1        0.2885
     18 O         141.2855  139.7642  165.3602 O.2     1  UNL1       -0.3731
     19 C         142.4201  138.6151  157.1662 C.3     1  UNL1        0.0991
     20 N         142.3216  137.1652  156.7942 N.3     1  UNL1       -0.2688
     21 C         143.2609  136.1685  157.4058 C.3     1  UNL1        0.0751
     22 C         143.1623  134.7188  157.0338 C.3     1  UNL1        0.0489
     23 C         142.1245  134.2657  156.0502 C.3     1  UNL1        0.1157
     24 C         141.1851  135.2625  155.4386 C.3     1  UNL1        0.0489
     25 C         141.2837  136.7122  155.8106 C.3     1  UNL1        0.0751
     26 O         141.1430  133.6675  155.0864 O.3     1  UNL1       -0.3496
     27 C         141.4020  132.1916  155.0172 C.3     1  UNL1        0.1687
     28 C         142.5436  131.8777  155.9382 C.ar    1  UNL1        0.0108
     29 C         143.2343  130.5903  156.2781 C.ar    1  UNL1        0.0476
     30 C         144.3713  130.5846  157.2563 C.ar    1  UNL1        0.2221
     31 F         145.0619  129.2972  157.5961 F       1  UNL1       -0.1832
     32 N         144.8178  131.8665  157.8947 N.ar    1  UNL1       -0.2167
     33 C         144.1272  133.1539  157.5549 C.ar    1  UNL1        0.0990
     34 C         142.9901  133.1595  156.5766 C.ar    1  UNL1        0.0198
@<TRIPOS>BOND
     1    17    18    1
     2    18     7    1
     3     7     8    2
     4     8     1    1
     5     1     2   ar
     6     2     3   ar
     7     3     4   ar
     8     4    19    1
     9    19    20    1
    10    20    21    1
    11    21    22    1
    12    22    23    1
    13    23    24    1
    14    24    25    1
    15    23    26    1
    16    26    27    1
    17    27    28    1
    18    28    29   ar
    19    29    30   ar
    20    30    31    1
    21    30    32   ar
    22    32    33   ar
    23    33    34   ar
    24     4     5   ar
    25     5     6   ar
    26     8     9    1
    27     9    10   ar
    28    10    11   ar
    29    11    12   ar
    30    12    13    1
    31    12    14   ar
    32    14    15    1
    33    14    16   ar
    34     6     1   ar
    35    16     9   ar
    36    25    20    1
    37    34    28   ar
    38    34    23    1
