@<TRIPOS>MOLECULE
*****
 30 33 0 0 0
SMALL
GASTEIGER

@<TRIPOS>ATOM
      1 C         142.6259  142.1704  164.3935 C.ar    1  UNL1        0.0858
      2 C         143.3237  141.4385  163.2857 C.ar    1  UNL1        0.0399
      3 C         143.3485  142.0186  161.9026 C.ar    1  UNL1        0.1032
      4 N         144.0464  141.2867  160.7948 N.ar    1  UNL1       -0.2405
      5 C         144.0711  141.8667  159.4117 C.ar    1  UNL1        0.1195
      6 C         143.3980  143.1786  159.1365 C.ar    1  UNL1        0.1196
      7 N         142.7001  143.9105  160.2443 N.ar    1  UNL1       -0.2379
      8 C         142.6754  143.3305  161.6273 C.ar    1  UNL1        0.1302
      9 C         141.9775  144.0624  162.7352 C.ar    1  UNL1        0.1477
     10 N         141.9527  143.4823  164.1183 N.ar    1  UNL1       -0.2292
     11 C         142.5516  140.4303  168.5428 C.ar    1  UNL1        0.1318
     12 C         142.9683  141.8561  168.3348 C.ar    1  UNL1        0.0344
     13 C         142.9931  142.4362  166.9518 C.ar    1  UNL1        0.0059
     14 C         142.6011  141.5904  165.7767 C.ar    1  UNL1        0.0370
     15 C         142.1843  140.1645  165.9846 C.ar    1  UNL1        0.1018
     16 N         142.1595  139.5845  167.3677 N.ar    1  UNL1       -0.2291
     17 C         142.1963  140.7237  171.0997 C.3     1  UNL1        0.1136
     18 N         142.5268  139.8503  169.9259 N.pl3   1  UNL1       -0.2897
     19 C         142.8325  138.3967  170.1352 C.3     1  UNL1        0.1136
     20 N         141.3043  145.3743  162.4600 N.pl3   1  UNL1       -0.3157
     21 H         141.8401  146.1973  162.3900 H       1  UNL1        0.1483
     22 C         139.8150  145.4323  162.2914 C.3     1  UNL1        0.1057
     23 C         138.9812  144.2161  162.5662 C.3     1  UNL1        0.0931
     24 C         138.6417  143.2719  161.4512 C.3     1  UNL1        0.0865
     25 N         137.8078  142.0556  161.7261 N.3     1  UNL1       -0.2951
     26 C         137.3135  141.7836  163.1159 C.3     1  UNL1        0.0862
     27 C         137.6530  142.7279  164.2309 C.3     1  UNL1        0.0895
     28 N         138.4868  143.9441  163.9561 N.3     1  UNL1       -0.2689
     29 C         138.8263  144.8883  165.0710 C.3     1  UNL1        0.0897
     30 H         138.3651  141.2477  161.4484 H       1  UNL1        0.1233
@<TRIPOS>BOND
     1    17    18    1
     2    18    19    1
     3    18    11    1
     4    11    12   ar
     5    12    13   ar
     6    13    14   ar
     7    14     1    1
     8     1     2   ar
     9     2     3   ar
    10     3     4   ar
    11     4     5   ar
    12     5     6   ar
    13     6     7   ar
    14     7     8   ar
    15     8     9   ar
    16     9    20    1
    17    20    22    1
    18    23    22    1
    19    23    24    1
    20    24    25    1
    21    25    26    1
    22    26    27    1
    23    27    28    1
    24    28    29    1
    25     9    10   ar
    26    14    15   ar
    27    15    16   ar
    28    16    11   ar
    29    10     1   ar
    30     8     3   ar
    31    28    23    1
    32    20    21    1
    33    25    30    1
@<TRIPOS>MOLECULE
*****
 30 33 0 0 0
SMALL
GASTEIGER

@<TRIPOS>ATOM
      1 C         142.7162  142.2328  164.2380 C.ar    1  UNL1        0.0858
      2 C         143.3449  141.3980  163.1621 C.ar    1  UNL1        0.0399
      3 C         143.4337  141.9240  161.7601 C.ar    1  UNL1        0.1032
      4 N         144.0625  141.0891  160.6842 N.ar    1  UNL1       -0.2405
      5 C         144.1512  141.6152  159.2823 C.ar    1  UNL1        0.1195
      6 C         143.6113  142.9761  158.9563 C.ar    1  UNL1        0.1196
      7 N         142.9826  143.8110  160.0322 N.ar    1  UNL1       -0.2379
      8 C         142.8938  143.2849  161.4341 C.ar    1  UNL1        0.1302
      9 C         142.2650  144.1199  162.5101 C.ar    1  UNL1        0.1477
     10 N         142.1763  143.5938  163.9120 N.ar    1  UNL1       -0.2292
     11 C         142.4498  140.6547  168.4438 C.ar    1  UNL1        0.1318
     12 C         143.1550  141.9504  168.1722 C.ar    1  UNL1        0.0344
     13 C         143.2439  142.4765  166.7703 C.ar    1  UNL1        0.0059
     14 C         142.6274  141.7068  165.6400 C.ar    1  UNL1        0.0370
     15 C         141.9221  140.4111  165.9116 C.ar    1  UNL1        0.1018
     16 N         141.8333  139.8851  167.3135 N.ar    1  UNL1       -0.2291
     17 C         141.9562  141.0415  170.9651 C.3     1  UNL1        0.1136
     18 N         142.3610  140.1287  169.8457 N.pl3   1  UNL1       -0.2897
     19 C         142.6769  138.6898  170.1283 C.3     1  UNL1        0.1136
     20 N         141.7251  145.4808  162.1841 N.pl3   1  UNL1       -0.3157
     21 H         142.3390  146.2450  162.0925 H       1  UNL1        0.1483
     22 C         140.2498  145.6775  161.9978 C.3     1  UNL1        0.1057
     23 C         139.2914  144.6004  162.4116 C.3     1  UNL1        0.0931
     24 C         138.7394  144.5829  163.8062 C.3     1  UNL1        0.0865
     25 N         137.7809  143.5058  164.2200 N.3     1  UNL1       -0.2951
     26 C         137.3745  142.4461  163.2393 C.3     1  UNL1        0.0862
     27 C         137.9265  142.4636  161.8446 C.3     1  UNL1        0.0895
     28 N         138.8849  143.5407  161.4308 N.3     1  UNL1       -0.2689
     29 C         139.4370  143.5581  160.0362 C.3     1  UNL1        0.0897
     30 H         136.9253  143.9726  164.5206 H       1  UNL1        0.1233
@<TRIPOS>BOND
     1    17    18    1
     2    18    19    1
     3    18    11    1
     4    11    12   ar
     5    12    13   ar
     6    13    14   ar
     7    14     1    1
     8     1     2   ar
     9     2     3   ar
    10     3     4   ar
    11     4     5   ar
    12     5     6   ar
    13     6     7   ar
    14     7     8   ar
    15     8     9   ar
    16     9    20    1
    17    20    22    1
    18    23    22    1
    19    23    24    1
    20    24    25    1
    21    25    26    1
    22    26    27    1
    23    27    28    1
    24    28    29    1
    25     9    10   ar
    26    14    15   ar
    27    15    16   ar
    28    16    11   ar
    29    10     1   ar
    30     8     3   ar
    31    28    23    1
    32    20    21    1
    33    25    30    1
@<TRIPOS>MOLECULE
*****
 30 33 0 0 0
SMALL
GASTEIGER

@<TRIPOS>ATOM
      1 C         139.4850  141.5104  164.0746 C.ar    1  UNL1        0.0858
      2 C         139.2039  140.4811  163.0205 C.ar    1  UNL1        0.0399
      3 C         138.8367  140.9112  161.6311 C.ar    1  UNL1        0.1032
      4 N         138.5556  139.8819  160.5769 N.ar    1  UNL1       -0.2405
      5 C         138.1884  140.3121  159.1877 C.ar    1  UNL1        0.1195
      6 C         138.1024  141.7717  158.8526 C.ar    1  UNL1        0.1196
      7 N         138.3835  142.8010  159.9068 N.ar    1  UNL1       -0.2379
      8 C         138.7506  142.3708  161.2961 C.ar    1  UNL1        0.1302
      9 C         139.0317  143.4002  162.3503 C.ar    1  UNL1        0.1477
     10 N         139.3989  142.9700  163.7396 N.ar    1  UNL1       -0.2292
     11 C         140.5866  140.2199  168.2425 C.ar    1  UNL1        0.1318
     12 C         139.3191  139.7221  167.6136 C.ar    1  UNL1        0.0344
     13 C         138.9519  140.1523  166.2244 C.ar    1  UNL1        0.0059
     14 C         139.8522  141.0802  165.4640 C.ar    1  UNL1        0.0370
     15 C         141.1197  141.5781  166.0929 C.ar    1  UNL1        0.1018
     16 N         141.4870  141.1479  167.4821 N.ar    1  UNL1       -0.2291
     17 C         139.9954  140.0126  170.7639 C.3     1  UNL1        0.1136
     18 N         140.9538  139.7898  169.6318 N.pl3   1  UNL1       -0.2897
     19 C         142.2795  139.1367  169.8890 C.3     1  UNL1        0.1136
     20 N         138.9457  144.8598  162.0153 N.pl3   1  UNL1       -0.3157
     21 H         138.0673  145.3008  161.9584 H       1  UNL1        0.1483
     22 C         140.1978  145.6474  161.7669 C.3     1  UNL1        0.1057
     23 C         141.5244  145.1072  162.2124 C.3     1  UNL1        0.0931
     24 C         142.0168  145.3803  163.6026 C.3     1  UNL1        0.0865
     25 N         143.3434  144.8401  164.0481 N.3     1  UNL1       -0.2951
     26 C         144.1775  144.0269  163.1033 C.3     1  UNL1        0.0862
     27 C         143.6852  143.7538  161.7129 C.3     1  UNL1        0.0895
     28 N         142.3586  144.2939  161.2674 N.3     1  UNL1       -0.2689
     29 C         141.8662  144.0209  159.8772 C.3     1  UNL1        0.0897
     30 H         143.1637  144.2528  164.8624 H       1  UNL1        0.1233
@<TRIPOS>BOND
     1    17    18    1
     2    18    19    1
     3    18    11    1
     4    11    12   ar
     5    12    13   ar
     6    13    14   ar
     7    14     1    1
     8     1     2   ar
     9     2     3   ar
    10     3     4   ar
    11     4     5   ar
    12     5     6   ar
    13     6     7   ar
    14     7     8   ar
    15     8     9   ar
    16     9    20    1
    17    20    22    1
    18    23    22    1
    19    23    24    1
    20    24    25    1
    21    25    26    1
    22    26    27    1
    23    27    28    1
    24    28    29    1
    25     9    10   ar
    26    14    15   ar
    27    15    16   ar
    28    16    11   ar
    29    10     1   ar
    30     8     3   ar
    31    28    23    1
    32    20    21    1
    33    25    30    1
@<TRIPOS>MOLECULE
*****
 30 33 0 0 0
SMALL
GASTEIGER

@<TRIPOS>ATOM
      1 C         140.4199  139.9861  164.4826 C.ar    1  UNL1        0.0858
      2 C         139.3677  140.5225  163.5580 C.ar    1  UNL1        0.0399
      3 C         139.3272  140.0739  162.1271 C.ar    1  UNL1        0.1032
      4 N         138.2750  140.6102  161.2024 N.ar    1  UNL1       -0.2405
      5 C         138.2346  140.1616  159.7717 C.ar    1  UNL1        0.1195
      6 C         139.2464  139.1767  159.2656 C.ar    1  UNL1        0.1196
      7 N         140.2986  138.6403  160.1903 N.ar    1  UNL1       -0.2379
      8 C         140.3390  139.0889  161.6211 C.ar    1  UNL1        0.1302
      9 C         141.3913  138.5526  162.5458 C.ar    1  UNL1        0.1477
     10 N         141.4317  139.0012  163.9766 N.ar    1  UNL1       -0.2292
     11 C         140.5413  141.3319  168.7750 C.ar    1  UNL1        0.1318
     12 C         139.6119  140.2299  168.3605 C.ar    1  UNL1        0.0344
     13 C         139.5714  139.7813  166.9297 C.ar    1  UNL1        0.0059
     14 C         140.4603  140.4347  165.9135 C.ar    1  UNL1        0.0370
     15 C         141.3898  141.5367  166.3280 C.ar    1  UNL1        0.1018
     16 N         141.4302  141.9853  167.7587 N.ar    1  UNL1       -0.2291
     17 C         141.4983  141.1007  171.1793 C.3     1  UNL1        0.1136
     18 N         140.5818  141.7805  170.2058 N.pl3   1  UNL1       -0.2897
     19 C         139.7056  142.9089  170.6630 C.3     1  UNL1        0.1136
     20 N         142.4032  137.5677  162.0398 N.pl3   1  UNL1       -0.3157
     21 H         142.1569  136.6206  161.9315 H       1  UNL1        0.1483
     22 C         143.7902  138.0256  161.6987 C.3     1  UNL1        0.1057
     23 C         144.0641  139.4826  161.4707 C.3     1  UNL1        0.0931
     24 C         143.7590  140.1038  160.1399 C.3     1  UNL1        0.0865
     25 N         144.0330  141.5609  159.9118 N.3     1  UNL1       -0.2951
     26 C         144.6120  142.3967  161.0145 C.3     1  UNL1        0.0862
     27 C         144.9172  141.7755  162.3454 C.3     1  UNL1        0.0895
     28 N         144.6432  140.3185  162.5735 N.3     1  UNL1       -0.2689
     29 C         144.9483  139.6973  163.9042 C.3     1  UNL1        0.0897
     30 H         143.1450  141.9903  159.6521 H       1  UNL1        0.1233
@<TRIPOS>BOND
     1    17    18    1
     2    18    19    1
     3    18    11    1
     4    11    12   ar
     5    12    13   ar
     6    13    14   ar
     7    14     1    1
     8     1     2   ar
     9     2     3   ar
    10     3     4   ar
    11     4     5   ar
    12     5     6   ar
    13     6     7   ar
    14     7     8   ar
    15     8     9   ar
    16     9    20    1
    17    20    22    1
    18    23    22    1
    19    23    24    1
    20    24    25    1
    21    25    26    1
    22    26    27    1
    23    27    28    1
    24    28    29    1
    25     9    10   ar
    26    14    15   ar
    27    15    16   ar
    28    16    11   ar
    29    10     1   ar
    30     8     3   ar
    31    28    23    1
    32    20    21    1
    33    25    30    1
@<TRIPOS>MOLECULE
*****
 30 33 0 0 0
SMALL
GASTEIGER

@<TRIPOS>ATOM
      1 C         140.3041  139.9729  164.6369 C.ar    1  UNL1        0.0858
      2 C         139.2528  140.5030  163.7076 C.ar    1  UNL1        0.0399
      3 C         139.2131  140.0440  162.2800 C.ar    1  UNL1        0.1032
      4 N         138.1618  140.5741  161.3507 N.ar    1  UNL1       -0.2405
      5 C         138.1222  140.1151  159.9233 C.ar    1  UNL1        0.1195
      6 C         139.1339  139.1260  159.4251 C.ar    1  UNL1        0.1196
      7 N         140.1853  138.5960  160.3544 N.ar    1  UNL1       -0.2379
      8 C         140.2249  139.0550  161.7819 C.ar    1  UNL1        0.1302
      9 C         141.2763  138.5249  162.7113 C.ar    1  UNL1        0.1477
     10 N         141.3159  138.9839  164.1387 N.ar    1  UNL1       -0.2292
     11 C         140.4231  141.3499  168.9194 C.ar    1  UNL1        0.1318
     12 C         139.5002  140.2390  168.5141 C.ar    1  UNL1        0.0344
     13 C         139.4606  139.7800  167.0867 C.ar    1  UNL1        0.0059
     14 C         140.3438  140.4319  166.0645 C.ar    1  UNL1        0.0370
     15 C         141.2666  141.5428  166.4697 C.ar    1  UNL1        0.1018
     16 N         141.3063  142.0018  167.8972 N.ar    1  UNL1       -0.2291
     17 C         141.2947  141.0668  171.3505 C.3     1  UNL1        0.1136
     18 N         140.4627  141.8088  170.3470 N.pl3   1  UNL1       -0.2897
     19 C         139.6703  143.0098  170.7709 C.3     1  UNL1        0.1136
     20 N         142.2880  137.5359  162.2131 N.pl3   1  UNL1       -0.3157
     21 H         142.0846  136.5728  162.2299 H       1  UNL1        0.1483
     22 C         143.6097  138.0142  161.6893 C.3     1  UNL1        0.1057
     23 C         144.1913  139.3041  162.1871 C.3     1  UNL1        0.0931
     24 C         144.7705  139.3820  163.5686 C.3     1  UNL1        0.0865
     25 N         145.3522  140.6719  164.0664 N.3     1  UNL1       -0.2951
     26 C         145.3546  141.8840  163.1827 C.3     1  UNL1        0.0862
     27 C         144.7753  141.8062  161.8012 C.3     1  UNL1        0.0895
     28 N         144.1937  140.5162  161.3034 N.3     1  UNL1       -0.2689
     29 C         143.6144  140.4384  159.9220 C.3     1  UNL1        0.0897
     30 H         146.3247  140.4823  164.3087 H       1  UNL1        0.1233
@<TRIPOS>BOND
     1    17    18    1
     2    18    19    1
     3    18    11    1
     4    11    12   ar
     5    12    13   ar
     6    13    14   ar
     7    14     1    1
     8     1     2   ar
     9     2     3   ar
    10     3     4   ar
    11     4     5   ar
    12     5     6   ar
    13     6     7   ar
    14     7     8   ar
    15     8     9   ar
    16     9    20    1
    17    20    22    1
    18    23    22    1
    19    23    24    1
    20    24    25    1
    21    25    26    1
    22    26    27    1
    23    27    28    1
    24    28    29    1
    25     9    10   ar
    26    14    15   ar
    27    15    16   ar
    28    16    11   ar
    29    10     1   ar
    30     8     3   ar
    31    28    23    1
    32    20    21    1
    33    25    30    1
@<TRIPOS>MOLECULE
*****
 30 33 0 0 0
SMALL
GASTEIGER

@<TRIPOS>ATOM
      1 C         141.1643  139.5206  165.0673 C.ar    1  UNL1        0.0858
      2 C         142.4813  139.5125  164.3494 C.ar    1  UNL1        0.0399
      3 C         142.5930  138.8788  162.9944 C.ar    1  UNL1        0.1032
      4 N         143.9100  138.8707  162.2765 N.ar    1  UNL1       -0.2405
      5 C         144.0217  138.2371  160.9216 C.ar    1  UNL1        0.1195
      6 C         142.8164  137.6116  160.2845 C.ar    1  UNL1        0.1196
      7 N         141.4994  137.6197  161.0023 N.ar    1  UNL1       -0.2379
      8 C         141.3877  138.2533  162.3573 C.ar    1  UNL1        0.1302
      9 C         140.0706  138.2615  163.0752 C.ar    1  UNL1        0.1477
     10 N         139.9589  138.8951  164.4302 N.ar    1  UNL1       -0.2292
     11 C         140.8292  141.4215  169.1323 C.ar    1  UNL1        0.1318
     12 C         139.7174  140.5581  168.6142 C.ar    1  UNL1        0.0344
     13 C         139.8291  139.9245  167.2592 C.ar    1  UNL1        0.0059
     14 C         141.0526  140.1543  166.4224 C.ar    1  UNL1        0.0370
     15 C         142.1643  141.0177  166.9405 C.ar    1  UNL1        0.1018
     16 N         142.0526  141.6514  168.2954 N.ar    1  UNL1       -0.2291
     17 C         139.6362  143.0587  170.7592 C.3     1  UNL1        0.1136
     18 N         140.7175  142.0552  170.4873 N.pl3   1  UNL1       -0.2897
     19 C         141.6870  141.6853  171.5705 C.3     1  UNL1        0.1136
     20 N         138.8653  137.6360  162.4381 N.pl3   1  UNL1       -0.3157
     21 H         138.6535  136.6898  162.6087 H       1  UNL1        0.1483
     22 C         137.9826  138.4521  161.5411 C.3     1  UNL1        0.1057
     23 C         138.0174  139.9498  161.6153 C.3     1  UNL1        0.0931
     24 C         137.3665  140.6591  162.7655 C.3     1  UNL1        0.0865
     25 N         137.4013  142.1569  162.8397 N.3     1  UNL1       -0.2951
     26 C         138.0871  142.9454  161.7637 C.3     1  UNL1        0.0862
     27 C         138.7381  142.2361  160.6134 C.3     1  UNL1        0.0895
     28 N         138.7033  140.7383  160.5392 N.3     1  UNL1       -0.2689
     29 C         139.3543  140.0290  159.3889 C.3     1  UNL1        0.0897
     30 H         137.8596  142.3975  163.7186 H       1  UNL1        0.1233
@<TRIPOS>BOND
     1    17    18    1
     2    18    19    1
     3    18    11    1
     4    11    12   ar
     5    12    13   ar
     6    13    14   ar
     7    14     1    1
     8     1     2   ar
     9     2     3   ar
    10     3     4   ar
    11     4     5   ar
    12     5     6   ar
    13     6     7   ar
    14     7     8   ar
    15     8     9   ar
    16     9    20    1
    17    20    22    1
    18    23    22    1
    19    23    24    1
    20    24    25    1
    21    25    26    1
    22    26    27    1
    23    27    28    1
    24    28    29    1
    25     9    10   ar
    26    14    15   ar
    27    15    16   ar
    28    16    11   ar
    29    10     1   ar
    30     8     3   ar
    31    28    23    1
    32    20    21    1
    33    25    30    1
@<TRIPOS>MOLECULE
*****
 30 33 0 0 0
SMALL
GASTEIGER

@<TRIPOS>ATOM
      1 C         139.5587  141.9376  164.4043 C.ar    1  UNL1        0.0858
      2 C         140.2521  143.0230  163.6356 C.ar    1  UNL1        0.0399
      3 C         139.9696  143.2046  162.1736 C.ar    1  UNL1        0.1032
      4 N         140.6629  144.2901  161.4049 N.ar    1  UNL1       -0.2405
      5 C         140.3804  144.4716  159.9430 C.ar    1  UNL1        0.1195
      6 C         139.4046  143.5676  159.2498 C.ar    1  UNL1        0.1196
      7 N         138.7113  142.4821  160.0185 N.ar    1  UNL1       -0.2379
      8 C         138.9938  142.3006  161.4804 C.ar    1  UNL1        0.1302
      9 C         138.3004  141.2151  162.2492 C.ar    1  UNL1        0.1477
     10 N         138.5829  141.0336  163.7111 N.ar    1  UNL1       -0.2292
     11 C         140.4062  141.3930  168.7901 C.ar    1  UNL1        0.1318
     12 C         139.8825  140.2449  167.9792 C.ar    1  UNL1        0.0344
     13 C         139.6000  140.4264  166.5173 C.ar    1  UNL1        0.0059
     14 C         139.8412  141.7560  165.8663 C.ar    1  UNL1        0.0370
     15 C         140.3649  142.9042  166.6771 C.ar    1  UNL1        0.1018
     16 N         140.6473  142.7227  168.1391 N.ar    1  UNL1       -0.2291
     17 C         141.5602  142.1950  170.9753 C.3     1  UNL1        0.1136
     18 N         140.6886  141.2115  170.2521 N.pl3   1  UNL1       -0.2897
     19 C         140.0995  140.0465  170.9907 C.3     1  UNL1        0.1136
     20 N         137.3245  140.3111  161.5559 N.pl3   1  UNL1       -0.3157
     21 H         136.4128  140.6275  161.3617 H       1  UNL1        0.1483
     22 C         137.7379  138.9250  161.1588 C.3     1  UNL1        0.1057
     23 C         139.1909  138.5530  161.1366 C.3     1  UNL1        0.0931
     24 C         140.0162  138.8253  159.9140 C.3     1  UNL1        0.0865
     25 N         141.4692  138.4533  159.8919 N.3     1  UNL1       -0.2951
     26 C         142.0968  137.8090  161.0922 C.3     1  UNL1        0.0862
     27 C         141.2715  137.5367  162.3149 C.3     1  UNL1        0.0895
     28 N         139.8185  137.9087  162.3370 N.3     1  UNL1       -0.2689
     29 C         138.9932  137.6364  163.5596 C.3     1  UNL1        0.0897
     30 H         141.9902  139.3116  159.7122 H       1  UNL1        0.1233
@<TRIPOS>BOND
     1    17    18    1
     2    18    19    1
     3    18    11    1
     4    11    12   ar
     5    12    13   ar
     6    13    14   ar
     7    14     1    1
     8     1     2   ar
     9     2     3   ar
    10     3     4   ar
    11     4     5   ar
    12     5     6   ar
    13     6     7   ar
    14     7     8   ar
    15     8     9   ar
    16     9    20    1
    17    20    22    1
    18    23    22    1
    19    23    24    1
    20    24    25    1
    21    25    26    1
    22    26    27    1
    23    27    28    1
    24    28    29    1
    25     9    10   ar
    26    14    15   ar
    27    15    16   ar
    28    16    11   ar
    29    10     1   ar
    30     8     3   ar
    31    28    23    1
    32    20    21    1
    33    25    30    1
@<TRIPOS>MOLECULE
*****
 30 33 0 0 0
SMALL
GASTEIGER

@<TRIPOS>ATOM
      1 C         139.8237  143.1389  160.1883 C.ar    1  UNL1        0.0858
      2 C         141.3174  143.0048  160.2171 C.ar    1  UNL1        0.0399
      3 C         142.1072  143.6484  161.3181 C.ar    1  UNL1        0.1032
      4 N         143.6009  143.5142  161.3469 N.ar    1  UNL1       -0.2405
      5 C         144.3905  144.1579  162.4478 C.ar    1  UNL1        0.1195
      6 C         143.6865  144.9357  163.5199 C.ar    1  UNL1        0.1196
      7 N         142.1929  145.0699  163.4911 N.ar    1  UNL1       -0.2379
      8 C         141.4032  144.4263  162.3901 C.ar    1  UNL1        0.1302
      9 C         139.9094  144.5604  162.3613 C.ar    1  UNL1        0.1477
     10 N         139.1197  143.9168  161.2604 N.ar    1  UNL1       -0.2292
     11 C         137.4545  141.2079  156.8856 C.ar    1  UNL1        0.1318
     12 C         138.1047  142.5410  156.6616 C.ar    1  UNL1        0.0344
     13 C         138.8945  143.1846  157.7625 C.ar    1  UNL1        0.0059
     14 C         139.0340  142.4953  159.0873 C.ar    1  UNL1        0.0370
     15 C         138.3837  141.1622  159.3113 C.ar    1  UNL1        0.1018
     16 N         137.5940  140.5185  158.2104 N.ar    1  UNL1       -0.2291
     17 C         135.1813  140.7720  155.7054 C.3     1  UNL1        0.1136
     18 N         136.6647  140.5642  155.7846 N.pl3   1  UNL1       -0.2897
     19 C         137.3585  139.7128  154.7629 C.3     1  UNL1        0.1136
     20 N         139.2054  145.3382  163.4334 N.pl3   1  UNL1       -0.3157
     21 H         139.1508  146.3195  163.3743 H       1  UNL1        0.1483
     22 C         138.5847  144.6211  164.5954 C.3     1  UNL1        0.1057
     23 C         138.4456  143.1278  164.5677 C.3     1  UNL1        0.0931
     24 C         137.3503  142.4914  163.7645 C.3     1  UNL1        0.0865
     25 N         137.2112  140.9981  163.7368 N.3     1  UNL1       -0.2951
     26 C         138.1675  140.1413  164.5123 C.3     1  UNL1        0.0862
     27 C         139.2629  140.7777  165.3155 C.3     1  UNL1        0.0895
     28 N         139.4019  142.2710  165.3432 N.3     1  UNL1       -0.2689
     29 C         140.4972  142.9075  166.1464 C.3     1  UNL1        0.0897
     30 H         137.2863  140.7135  162.7602 H       1  UNL1        0.1233
@<TRIPOS>BOND
     1    17    18    1
     2    18    19    1
     3    18    11    1
     4    11    12   ar
     5    12    13   ar
     6    13    14   ar
     7    14     1    1
     8     1     2   ar
     9     2     3   ar
    10     3     4   ar
    11     4     5   ar
    12     5     6   ar
    13     6     7   ar
    14     7     8   ar
    15     8     9   ar
    16     9    20    1
    17    20    22    1
    18    23    22    1
    19    23    24    1
    20    24    25    1
    21    25    26    1
    22    26    27    1
    23    27    28    1
    24    28    29    1
    25     9    10   ar
    26    14    15   ar
    27    15    16   ar
    28    16    11   ar
    29    10     1   ar
    30     8     3   ar
    31    28    23    1
    32    20    21    1
    33    25    30    1
@<TRIPOS>MOLECULE
*****
 30 33 0 0 0
SMALL
GASTEIGER

@<TRIPOS>ATOM
      1 C         142.6104  141.8908  163.9019 C.ar    1  UNL1        0.0858
      2 C         142.4021  142.9587  162.8695 C.ar    1  UNL1        0.0399
      3 C         142.8514  142.7335  161.4561 C.ar    1  UNL1        0.1032
      4 N         142.6431  143.8014  160.4237 N.ar    1  UNL1       -0.2405
      5 C         143.0924  143.5761  159.0104 C.ar    1  UNL1        0.1195
      6 C         143.7500  142.2829  158.6297 C.ar    1  UNL1        0.1196
      7 N         143.9584  141.2149  159.6621 N.ar    1  UNL1       -0.2379
      8 C         143.5091  141.4402  161.0754 C.ar    1  UNL1        0.1302
      9 C         143.7174  140.3722  162.1079 C.ar    1  UNL1        0.1477
     10 N         143.2681  140.5975  163.5212 N.ar    1  UNL1       -0.2292
     11 C         141.2626  142.5665  168.1418 C.ar    1  UNL1        0.1318
     12 C         140.3282  142.8510  167.0034 C.ar    1  UNL1        0.0344
     13 C         140.7774  142.6257  165.5902 C.ar    1  UNL1        0.0059
     14 C         142.1611  142.1161  165.3153 C.ar    1  UNL1        0.0370
     15 C         143.0956  141.8316  166.4537 C.ar    1  UNL1        0.1018
     16 N         142.6463  142.0569  167.8670 N.ar    1  UNL1       -0.2291
     17 C         140.7388  141.6385  170.5113 C.3     1  UNL1        0.1136
     18 N         140.8133  142.7918  169.5552 N.pl3   1  UNL1       -0.2897
     19 C         140.4386  144.1704  170.0123 C.3     1  UNL1        0.1136
     20 N         144.3751  139.0790  161.7271 N.pl3   1  UNL1       -0.3157
     21 H         145.3571  139.0095  161.7201 H       1  UNL1        0.1483
     22 C         143.5366  137.8916  161.3572 C.3     1  UNL1        0.1057
     23 C         142.0656  137.8915  161.6507 C.3     1  UNL1        0.0931
     24 C         141.5725  137.5008  163.0123 C.3     1  UNL1        0.0865
     25 N         140.1015  137.5007  163.3058 N.3     1  UNL1       -0.2951
     26 C         139.1235  137.8913  162.2376 C.3     1  UNL1        0.0862
     27 C         139.6166  138.2821  160.8759 C.3     1  UNL1        0.0895
     28 N         141.0876  138.2822  160.5824 N.3     1  UNL1       -0.2689
     29 C         141.5807  138.6730  159.2208 C.3     1  UNL1        0.0897
     30 H         139.9568  138.1415  164.0861 H       1  UNL1        0.1233
@<TRIPOS>BOND
     1    17    18    1
     2    18    19    1
     3    18    11    1
     4    11    12   ar
     5    12    13   ar
     6    13    14   ar
     7    14     1    1
     8     1     2   ar
     9     2     3   ar
    10     3     4   ar
    11     4     5   ar
    12     5     6   ar
    13     6     7   ar
    14     7     8   ar
    15     8     9   ar
    16     9    20    1
    17    20    22    1
    18    23    22    1
    19    23    24    1
    20    24    25    1
    21    25    26    1
    22    26    27    1
    23    27    28    1
    24    28    29    1
    25     9    10   ar
    26    14    15   ar
    27    15    16   ar
    28    16    11   ar
    29    10     1   ar
    30     8     3   ar
    31    28    23    1
    32    20    21    1
    33    25    30    1
