@<TRIPOS>MOLECULE
*****
 29 32 0 0 0
SMALL
GASTEIGER

@<TRIPOS>ATOM
      1 N         139.5947  140.1506  166.3441 N.am    1  UNL1       -0.2640
      2 C         139.0523  139.6986  167.6675 C.2     1  UNL1        0.2495
      3 O         137.8795  138.7867  167.8746 O.2     1  UNL1       -0.2699
      4 C         139.8885  140.3186  168.7474 C.ar    1  UNL1        0.0517
      5 C         139.8222  140.2306  170.2434 C.ar    1  UNL1        0.0043
      6 C         140.8153  140.9778  171.0833 C.ar    1  UNL1        0.0001
      7 C         141.8746  141.8130  170.4273 C.ar    1  UNL1       -0.0003
      8 C         141.9408  141.9011  168.9314 C.ar    1  UNL1       -0.0021
      9 C         140.9478  141.1539  168.0915 C.ar    1  UNL1        0.0089
     10 C         140.7662  141.0500  166.6061 C.3     1  UNL1        0.1753
     11 C         141.6084  141.7267  165.5655 C.2     1  UNL1        0.2452
     12 O         142.6658  140.9522  164.8363 O.2     1  UNL1       -0.2729
     13 N         141.3930  143.1782  165.2541 N.am    1  UNL1       -0.2988
     14 H         140.6990  143.6867  165.7326 H       1  UNL1        0.1498
     15 C         142.2351  143.8550  164.2135 C.3     1  UNL1        0.1164
     16 C         141.5987  144.3885  162.9644 C.ar    1  UNL1       -0.0026
     17 C         141.9677  143.8121  161.6296 C.ar    1  UNL1       -0.0026
     18 C         141.3313  144.3456  160.3804 C.ar    1  UNL1       -0.0003
     19 C         140.3258  145.4554  160.4660 C.ar    1  UNL1       -0.0000
     20 C         139.9568  146.0317  161.8009 C.ar    1  UNL1       -0.0003
     21 C         140.5932  145.4983  163.0500 C.ar    1  UNL1       -0.0026
     22 C         138.8712  138.3240  164.6441 C.3     1  UNL1        0.0265
     23 C         139.0597  139.7700  164.9954 C.3     1  UNL1        0.0989
     24 C         138.7131  140.8354  163.9981 C.ar    1  UNL1       -0.0042
     25 C         139.1247  140.6826  162.5638 C.ar    1  UNL1       -0.0027
     26 C         138.7780  141.7482  161.5665 C.ar    1  UNL1       -0.0003
     27 C         138.0198  142.9664  162.0035 C.ar    1  UNL1       -0.0000
     28 C         137.6082  143.1192  163.4378 C.ar    1  UNL1       -0.0003
     29 C         137.9548  142.0538  164.4351 C.ar    1  UNL1       -0.0027
@<TRIPOS>BOND
     1    22    23    1
     2    23    24    1
     3    24    25   ar
     4    25    26   ar
     5    26    27   ar
     6    27    28   ar
     7    28    29   ar
     8    23     1    1
     9     1     2   am
    10     2     3    2
    11     2     4    1
    12     4     5   ar
    13     5     6   ar
    14     6     7   ar
    15     7     8   ar
    16     8     9   ar
    17     9    10    1
    18    10    11    1
    19    11    12    2
    20    11    13   am
    21    13    15    1
    22    15    16    1
    23    16    17   ar
    24    17    18   ar
    25    18    19   ar
    26    19    20   ar
    27    20    21   ar
    28    29    24   ar
    29    10     1    1
    30    21    16   ar
    31     9     4   ar
    32    13    14    1
@<TRIPOS>MOLECULE
*****
 29 32 0 0 0
SMALL
GASTEIGER

@<TRIPOS>ATOM
      1 N         140.1016  139.7167  163.8099 N.am    1  UNL1       -0.2640
      2 C         139.8574  139.2047  162.4213 C.2     1  UNL1        0.2495
      3 O         138.5356  139.1735  161.7128 O.2     1  UNL1       -0.2699
      4 C         141.1670  138.7293  161.8655 C.ar    1  UNL1        0.0517
      5 C         141.5363  138.1259  160.5429 C.ar    1  UNL1        0.0043
      6 C         142.9591  137.7407  160.2653 C.ar    1  UNL1        0.0001
      7 C         144.0127  137.9590  161.3104 C.ar    1  UNL1       -0.0003
      8 C         143.6435  138.5623  162.6331 C.ar    1  UNL1       -0.0021
      9 C         142.2207  138.9475  162.9106 C.ar    1  UNL1        0.0089
     10 C         141.5622  139.5578  164.1123 C.3     1  UNL1        0.1753
     11 C         142.2445  139.9417  165.3918 C.2     1  UNL1        0.2452
     12 O         143.2363  141.0668  165.4045 O.2     1  UNL1       -0.2729
     13 N         141.9350  139.2004  166.6586 N.am    1  UNL1       -0.2988
     14 H         141.2840  138.4619  166.6503 H       1  UNL1        0.1498
     15 C         142.6173  139.5843  167.9381 C.3     1  UNL1        0.1164
     16 C         142.1886  140.8180  168.6757 C.ar    1  UNL1       -0.0026
     17 C         140.7325  141.1646  168.7746 C.ar    1  UNL1       -0.0026
     18 C         140.3037  142.3984  169.5123 C.ar    1  UNL1       -0.0003
     19 C         141.3309  143.2855  170.1510 C.ar    1  UNL1       -0.0000
     20 C         142.7869  142.9388  170.0520 C.ar    1  UNL1       -0.0003
     21 C         143.2158  141.7051  169.3144 C.ar    1  UNL1       -0.0026
     22 C         138.2196  139.3727  165.5676 C.3     1  UNL1        0.0265
     23 C         139.0669  140.2875  164.7338 C.3     1  UNL1        0.0989
     24 C         138.8795  141.7730  164.8240 C.ar    1  UNL1       -0.0042
     25 C         137.8053  142.4436  164.0201 C.ar    1  UNL1       -0.0027
     26 C         137.6180  143.9291  164.1102 C.ar    1  UNL1       -0.0003
     27 C         138.5048  144.7440  165.0043 C.ar    1  UNL1       -0.0000
     28 C         139.5791  144.0734  165.8082 C.ar    1  UNL1       -0.0003
     29 C         139.7664  142.5879  165.7181 C.ar    1  UNL1       -0.0027
@<TRIPOS>BOND
     1    22    23    1
     2    23    24    1
     3    24    25   ar
     4    25    26   ar
     5    26    27   ar
     6    27    28   ar
     7    28    29   ar
     8    23     1    1
     9     1     2   am
    10     2     3    2
    11     2     4    1
    12     4     5   ar
    13     5     6   ar
    14     6     7   ar
    15     7     8   ar
    16     8     9   ar
    17     9    10    1
    18    10    11    1
    19    11    12    2
    20    11    13   am
    21    13    15    1
    22    15    16    1
    23    16    17   ar
    24    17    18   ar
    25    18    19   ar
    26    19    20   ar
    27    20    21   ar
    28    29    24   ar
    29    10     1    1
    30    21    16   ar
    31     9     4   ar
    32    13    14    1
@<TRIPOS>MOLECULE
*****
 29 32 0 0 0
SMALL
GASTEIGER

@<TRIPOS>ATOM
      1 N         139.5602  143.2310  162.6604 N.am    1  UNL1       -0.2640
      2 C         139.4341  143.8306  161.2913 C.2     1  UNL1        0.2495
      3 O         139.7347  145.2526  160.9204 O.2     1  UNL1       -0.2699
      4 C         138.9546  142.7586  160.3581 C.ar    1  UNL1        0.0517
      5 C         138.6510  142.7687  158.8892 C.ar    1  UNL1        0.0043
      6 C         138.1771  141.5166  158.2127 C.ar    1  UNL1        0.0001
      7 C         138.0069  140.2544  159.0051 C.ar    1  UNL1       -0.0003
      8 C         138.3105  140.2443  160.4739 C.ar    1  UNL1       -0.0021
      9 C         138.7843  141.4964  161.1504 C.ar    1  UNL1        0.0089
     10 C         139.1586  141.7883  162.5734 C.3     1  UNL1        0.1753
     11 C         139.1354  140.8095  163.7097 C.2     1  UNL1        0.2452
     12 O         137.9067  140.6759  164.5596 O.2     1  UNL1       -0.2729
     13 N         140.3410  139.9641  163.9962 N.am    1  UNL1       -0.2988
     14 H         141.1475  140.0518  163.4384 H       1  UNL1        0.1498
     15 C         140.3178  138.9853  165.1326 C.3     1  UNL1        0.1164
     16 C         140.7584  139.4140  166.5008 C.ar    1  UNL1       -0.0026
     17 C         142.2110  139.3631  166.8711 C.ar    1  UNL1       -0.0026
     18 C         142.6517  139.7919  168.2394 C.ar    1  UNL1       -0.0003
     19 C         141.6396  140.2716  169.2373 C.ar    1  UNL1       -0.0000
     20 C         140.1870  140.3225  168.8668 C.ar    1  UNL1       -0.0003
     21 C         139.7463  139.8937  167.4986 C.ar    1  UNL1       -0.0026
     22 C         139.0229  144.7378  164.7075 C.3     1  UNL1        0.0265
     23 C         140.0091  143.9480  163.8991 C.3     1  UNL1        0.0989
     24 C         141.4442  143.8753  164.3293 C.ar    1  UNL1       -0.0042
     25 C         141.8847  142.8160  165.2957 C.ar    1  UNL1       -0.0027
     26 C         143.3199  142.7434  165.7259 C.ar    1  UNL1       -0.0003
     27 C         144.3144  143.7300  165.1899 C.ar    1  UNL1       -0.0000
     28 C         143.8739  144.7893  164.2235 C.ar    1  UNL1       -0.0003
     29 C         142.4388  144.8620  163.7933 C.ar    1  UNL1       -0.0027
@<TRIPOS>BOND
     1    22    23    1
     2    23    24    1
     3    24    25   ar
     4    25    26   ar
     5    26    27   ar
     6    27    28   ar
     7    28    29   ar
     8    23     1    1
     9     1     2   am
    10     2     3    2
    11     2     4    1
    12     4     5   ar
    13     5     6   ar
    14     6     7   ar
    15     7     8   ar
    16     8     9   ar
    17     9    10    1
    18    10    11    1
    19    11    12    2
    20    11    13   am
    21    13    15    1
    22    15    16    1
    23    16    17   ar
    24    17    18   ar
    25    18    19   ar
    26    19    20   ar
    27    20    21   ar
    28    29    24   ar
    29    10     1    1
    30    21    16   ar
    31     9     4   ar
    32    13    14    1
@<TRIPOS>MOLECULE
*****
 29 32 0 0 0
SMALL
GASTEIGER

@<TRIPOS>ATOM
      1 N         142.2225  140.8000  166.4422 N.am    1  UNL1       -0.2640
      2 C         142.4142  140.1638  167.7870 C.2     1  UNL1        0.2495
      3 O         143.1591  138.8913  168.0622 O.2     1  UNL1       -0.2699
      4 C         141.7301  141.0235  168.8083 C.ar    1  UNL1        0.0517
      5 C         141.5874  140.8941  170.2958 C.ar    1  UNL1        0.0043
      6 C         140.8302  141.9322  171.0697 C.ar    1  UNL1        0.0001
      7 C         140.2158  143.0998  170.3561 C.ar    1  UNL1       -0.0003
      8 C         140.3586  143.2292  168.8686 C.ar    1  UNL1       -0.0021
      9 C         141.1157  142.1911  168.0947 C.ar    1  UNL1        0.0089
     10 C         141.4200  142.0530  166.6324 C.3     1  UNL1        0.1753
     11 C         140.9962  143.0013  165.5502 C.2     1  UNL1        0.2452
     12 O         142.0303  143.7073  164.7243 O.2     1  UNL1       -0.2729
     13 N         139.5382  143.2436  165.2939 N.am    1  UNL1       -0.2988
     14 H         138.8595  142.7802  165.8360 H       1  UNL1        0.1498
     15 C         139.1144  144.1919  164.2118 C.3     1  UNL1        0.1164
     16 C         139.1066  143.7419  162.7809 C.ar    1  UNL1       -0.0026
     17 C         140.0321  144.3812  161.7886 C.ar    1  UNL1       -0.0026
     18 C         140.0244  143.9311  160.3577 C.ar    1  UNL1       -0.0003
     19 C         139.0911  142.8418  159.9191 C.ar    1  UNL1       -0.0000
     20 C         138.1656  142.2025  160.9115 C.ar    1  UNL1       -0.0003
     21 C         138.1734  142.6525  162.3424 C.ar    1  UNL1       -0.0026
     22 C         144.1519  140.5699  164.7176 C.3     1  UNL1        0.0265
     23 C         142.7421  140.2754  165.1365 C.3     1  UNL1        0.0989
     24 C         141.8518  139.4563  164.2497 C.ar    1  UNL1       -0.0042
     25 C         141.0000  140.1293  163.2146 C.ar    1  UNL1       -0.0027
     26 C         140.1097  139.3102  162.3278 C.ar    1  UNL1       -0.0003
     27 C         140.0712  137.8181  162.4761 C.ar    1  UNL1       -0.0000
     28 C         140.9230  137.1450  163.5113 C.ar    1  UNL1       -0.0003
     29 C         141.8132  137.9641  164.3980 C.ar    1  UNL1       -0.0027
@<TRIPOS>BOND
     1    22    23    1
     2    23    24    1
     3    24    25   ar
     4    25    26   ar
     5    26    27   ar
     6    27    28   ar
     7    28    29   ar
     8    23     1    1
     9     1     2   am
    10     2     3    2
    11     2     4    1
    12     4     5   ar
    13     5     6   ar
    14     6     7   ar
    15     7     8   ar
    16     8     9   ar
    17     9    10    1
    18    10    11    1
    19    11    12    2
    20    11    13   am
    21    13    15    1
    22    15    16    1
    23    16    17   ar
    24    17    18   ar
    25    18    19   ar
    26    19    20   ar
    27    20    21   ar
    28    29    24   ar
    29    10     1    1
    30    21    16   ar
    31     9     4   ar
    32    13    14    1
@<TRIPOS>MOLECULE
*****
 29 32 0 0 0
SMALL
GASTEIGER

@<TRIPOS>ATOM
      1 N         140.1258  139.5183  166.4296 N.am    1  UNL1       -0.2640
      2 C         139.3091  139.5086  167.6878 C.2     1  UNL1        0.2495
      3 O         137.9110  138.9833  167.8274 O.2     1  UNL1       -0.2699
      4 C         140.1359  140.1164  168.7818 C.ar    1  UNL1        0.0517
      5 C         139.8513  140.3688  170.2328 C.ar    1  UNL1        0.0043
      6 C         140.8944  141.0065  171.1017 C.ar    1  UNL1        0.0001
      7 C         142.2221  141.3919  170.5198 C.ar    1  UNL1       -0.0003
      8 C         142.5067  141.1395  169.0688 C.ar    1  UNL1       -0.0021
      9 C         141.4636  140.5018  168.1999 C.ar    1  UNL1        0.0089
     10 C         141.4573  140.1321  166.7461 C.3     1  UNL1        0.1753
     11 C         142.5847  140.3398  165.7788 C.2     1  UNL1        0.2452
     12 O         142.9605  141.7276  165.3516 O.2     1  UNL1       -0.2729
     13 N         143.3365  139.1594  165.2385 N.am    1  UNL1       -0.2988
     14 H         143.0899  138.2485  165.5188 H       1  UNL1        0.1498
     15 C         144.4639  139.3671  164.2711 C.3     1  UNL1        0.1164
     16 C         144.1774  139.5156  162.8063 C.ar    1  UNL1       -0.0026
     17 C         143.7863  138.3171  161.9934 C.ar    1  UNL1       -0.0026
     18 C         143.4997  138.4655  160.5284 C.ar    1  UNL1       -0.0003
     19 C         143.6043  139.8124  159.8764 C.ar    1  UNL1       -0.0000
     20 C         143.9953  141.0108  160.6894 C.ar    1  UNL1       -0.0003
     21 C         144.2819  140.8624  162.1543 C.ar    1  UNL1       -0.0026
     22 C         139.5830  137.5273  164.8513 C.3     1  UNL1        0.0265
     23 C         139.6878  139.0044  165.0902 C.3     1  UNL1        0.0989
     24 C         139.3547  139.9676  163.9897 C.ar    1  UNL1       -0.0042
     25 C         138.0222  140.6562  163.9735 C.ar    1  UNL1       -0.0027
     26 C         137.6891  141.6195  162.8729 C.ar    1  UNL1       -0.0003
     27 C         138.6884  141.8940  161.7885 C.ar    1  UNL1       -0.0000
     28 C         140.0209  141.2054  161.8047 C.ar    1  UNL1       -0.0003
     29 C         140.3540  140.2422  162.9052 C.ar    1  UNL1       -0.0027
@<TRIPOS>BOND
     1    22    23    1
     2    23    24    1
     3    24    25   ar
     4    25    26   ar
     5    26    27   ar
     6    27    28   ar
     7    28    29   ar
     8    23     1    1
     9     1     2   am
    10     2     3    2
    11     2     4    1
    12     4     5   ar
    13     5     6   ar
    14     6     7   ar
    15     7     8   ar
    16     8     9   ar
    17     9    10    1
    18    10    11    1
    19    11    12    2
    20    11    13   am
    21    13    15    1
    22    15    16    1
    23    16    17   ar
    24    17    18   ar
    25    18    19   ar
    26    19    20   ar
    27    20    21   ar
    28    29    24   ar
    29    10     1    1
    30    21    16   ar
    31     9     4   ar
    32    13    14    1
@<TRIPOS>MOLECULE
*****
 29 32 0 0 0
SMALL
GASTEIGER

@<TRIPOS>ATOM
      1 N         139.4629  139.5853  166.2904 N.am    1  UNL1       -0.2640
      2 C         138.8761  139.6020  167.6708 C.2     1  UNL1        0.2495
      3 O         137.7420  138.7491  168.1570 O.2     1  UNL1       -0.2699
      4 C         139.6224  140.6213  168.4795 C.ar    1  UNL1        0.0517
      5 C         139.4830  141.0702  169.9039 C.ar    1  UNL1        0.0043
      6 C         140.3917  142.1324  170.4478 C.ar    1  UNL1        0.0001
      7 C         141.4398  142.7457  169.5673 C.ar    1  UNL1       -0.0003
      8 C         141.5792  142.2968  168.1429 C.ar    1  UNL1       -0.0021
      9 C         140.6705  141.2346  167.5990 C.ar    1  UNL1        0.0089
     10 C         140.5719  140.5943  166.2461 C.3     1  UNL1        0.1753
     11 C         141.4315  140.9080  165.0575 C.2     1  UNL1        0.2452
     12 O         142.6741  140.1087  164.7987 O.2     1  UNL1       -0.2729
     13 N         141.0485  142.0211  164.1277 N.am    1  UNL1       -0.2988
     14 H         140.2329  142.5457  164.2976 H       1  UNL1        0.1498
     15 C         141.9081  142.3348  162.9391 C.3     1  UNL1        0.1164
     16 C         141.5875  141.7344  161.6025 C.ar    1  UNL1       -0.0026
     17 C         142.0142  140.3310  161.2890 C.ar    1  UNL1       -0.0026
     18 C         141.6937  139.7305  159.9522 C.ar    1  UNL1       -0.0003
     19 C         140.9464  140.5334  158.9291 C.ar    1  UNL1       -0.0000
     20 C         140.5198  141.9369  159.2427 C.ar    1  UNL1       -0.0003
     21 C         140.8403  142.5374  160.5793 C.ar    1  UNL1       -0.0026
     22 C         139.0245  137.2207  165.3074 C.3     1  UNL1        0.0265
     23 C         139.0188  138.7128  165.1540 C.3     1  UNL1        0.0989
     24 C         138.5688  139.3324  163.8642 C.ar    1  UNL1       -0.0042
     25 C         137.9015  140.6758  163.8702 C.ar    1  UNL1       -0.0027
     26 C         137.4515  141.2954  162.5803 C.ar    1  UNL1       -0.0003
     27 C         137.6689  140.5716  161.2846 C.ar    1  UNL1       -0.0000
     28 C         138.3362  139.2283  161.2787 C.ar    1  UNL1       -0.0003
     29 C         138.7861  138.6086  162.5684 C.ar    1  UNL1       -0.0027
@<TRIPOS>BOND
     1    22    23    1
     2    23    24    1
     3    24    25   ar
     4    25    26   ar
     5    26    27   ar
     6    27    28   ar
     7    28    29   ar
     8    23     1    1
     9     1     2   am
    10     2     3    2
    11     2     4    1
    12     4     5   ar
    13     5     6   ar
    14     6     7   ar
    15     7     8   ar
    16     8     9   ar
    17     9    10    1
    18    10    11    1
    19    11    12    2
    20    11    13   am
    21    13    15    1
    22    15    16    1
    23    16    17   ar
    24    17    18   ar
    25    18    19   ar
    26    19    20   ar
    27    20    21   ar
    28    29    24   ar
    29    10     1    1
    30    21    16   ar
    31     9     4   ar
    32    13    14    1
@<TRIPOS>MOLECULE
*****
 29 32 0 0 0
SMALL
GASTEIGER

@<TRIPOS>ATOM
      1 N         139.7129  142.0727  162.8214 N.am    1  UNL1       -0.2640
      2 C         139.3902  142.6113  161.4591 C.2     1  UNL1        0.2495
      3 O         138.0166  142.8830  160.9211 O.2     1  UNL1       -0.2699
      4 C         140.6822  142.8304  160.7292 C.ar    1  UNL1        0.0517
      5 C         140.9826  143.3449  159.3527 C.ar    1  UNL1        0.0043
      6 C         142.4042  143.4563  158.8873 C.ar    1  UNL1        0.0001
      7 C         143.5254  143.0532  159.7985 C.ar    1  UNL1       -0.0003
      8 C         143.2250  142.5386  161.1751 C.ar    1  UNL1       -0.0021
      9 C         141.8034  142.4273  161.6405 C.ar    1  UNL1        0.0089
     10 C         141.2043  141.9590  162.9334 C.3     1  UNL1        0.1753
     11 C         141.9635  141.4639  164.1287 C.2     1  UNL1        0.2452
     12 O         142.7117  140.1659  164.0571 O.2     1  UNL1       -0.2729
     13 N         141.9744  142.2669  165.3957 N.am    1  UNL1       -0.2988
     14 H         141.4833  143.1189  165.4427 H       1  UNL1        0.1498
     15 C         142.7335  141.7718  166.5909 C.3     1  UNL1        0.1164
     16 C         141.9966  141.1729  167.7520 C.ar    1  UNL1       -0.0026
     17 C         142.6188  140.0594  168.5413 C.ar    1  UNL1       -0.0026
     18 C         141.8818  139.4605  169.7026 C.ar    1  UNL1       -0.0003
     19 C         140.5228  139.9750  170.0744 C.ar    1  UNL1       -0.0000
     20 C         139.9007  141.0885  169.2850 C.ar    1  UNL1       -0.0003
     21 C         140.6376  141.6875  168.1238 C.ar    1  UNL1       -0.0026
     22 C         137.7793  142.7521  164.4182 C.3     1  UNL1        0.0265
     23 C         138.7187  141.7114  163.8848 C.3     1  UNL1        0.0989
     24 C         138.6638  140.3093  164.4149 C.ar    1  UNL1       -0.0042
     25 C         138.9902  139.1541  163.5155 C.ar    1  UNL1       -0.0027
     26 C         138.9353  137.7519  164.0457 C.ar    1  UNL1       -0.0003
     27 C         138.5540  137.5050  165.4752 C.ar    1  UNL1       -0.0000
     28 C         138.2276  138.6602  166.3747 C.ar    1  UNL1       -0.0003
     29 C         138.2824  140.0623  165.8446 C.ar    1  UNL1       -0.0027
@<TRIPOS>BOND
     1    22    23    1
     2    23    24    1
     3    24    25   ar
     4    25    26   ar
     5    26    27   ar
     6    27    28   ar
     7    28    29   ar
     8    23     1    1
     9     1     2   am
    10     2     3    2
    11     2     4    1
    12     4     5   ar
    13     5     6   ar
    14     6     7   ar
    15     7     8   ar
    16     8     9   ar
    17     9    10    1
    18    10    11    1
    19    11    12    2
    20    11    13   am
    21    13    15    1
    22    15    16    1
    23    16    17   ar
    24    17    18   ar
    25    18    19   ar
    26    19    20   ar
    27    20    21   ar
    28    29    24   ar
    29    10     1    1
    30    21    16   ar
    31     9     4   ar
    32    13    14    1
@<TRIPOS>MOLECULE
*****
 29 32 0 0 0
SMALL
GASTEIGER

@<TRIPOS>ATOM
      1 N         139.9585  140.6790  166.4868 N.am    1  UNL1       -0.2640
      2 C         139.4091  140.0146  167.7143 C.2     1  UNL1        0.2495
      3 O         138.3222  138.9814  167.7460 O.2     1  UNL1       -0.2699
      4 C         140.1376  140.5648  168.9046 C.ar    1  UNL1        0.0517
      5 C         140.0198  140.2809  170.3727 C.ar    1  UNL1        0.0043
      6 C         140.9016  141.0014  171.3490 C.ar    1  UNL1        0.0001
      7 C         141.9012  142.0059  170.8571 C.ar    1  UNL1       -0.0003
      8 C         142.0189  142.2898  169.3890 C.ar    1  UNL1       -0.0021
      9 C         141.1371  141.5692  168.4127 C.ar    1  UNL1        0.0089
     10 C         141.0264  141.6398  166.9185 C.3     1  UNL1        0.1753
     11 C         141.8407  142.5172  166.0146 C.2     1  UNL1        0.2452
     12 O         143.3379  142.5013  166.1032 O.2     1  UNL1       -0.2729
     13 N         141.1577  143.4107  165.0218 N.am    1  UNL1       -0.2988
     14 H         140.1750  143.4212  164.9636 H       1  UNL1        0.1498
     15 C         141.9720  144.2881  164.1179 C.3     1  UNL1        0.1164
     16 C         142.5336  143.7345  162.8420 C.ar    1  UNL1       -0.0026
     17 C         141.6516  143.5819  161.6384 C.ar    1  UNL1       -0.0026
     18 C         142.2131  143.0283  160.3623 C.ar    1  UNL1       -0.0003
     19 C         143.6567  142.6272  160.2899 C.ar    1  UNL1       -0.0000
     20 C         144.5387  142.7797  161.4936 C.ar    1  UNL1       -0.0003
     21 C         143.9772  143.3334  162.7696 C.ar    1  UNL1       -0.0026
     22 C         138.2434  141.0348  164.5680 C.3     1  UNL1        0.0265
     23 C         139.5173  140.4269  165.0755 C.3     1  UNL1        0.0989
     24 C         140.3500  139.5669  164.1717 C.ar    1  UNL1       -0.0042
     25 C         141.2387  140.2006  163.1427 C.ar    1  UNL1       -0.0027
     26 C         142.0715  139.3406  162.2389 C.ar    1  UNL1       -0.0003
     27 C         142.0156  137.8469  162.3640 C.ar    1  UNL1       -0.0000
     28 C         141.1269  137.2132  163.3930 C.ar    1  UNL1       -0.0003
     29 C         140.2942  138.0731  164.2968 C.ar    1  UNL1       -0.0027
@<TRIPOS>BOND
     1    22    23    1
     2    23    24    1
     3    24    25   ar
     4    25    26   ar
     5    26    27   ar
     6    27    28   ar
     7    28    29   ar
     8    23     1    1
     9     1     2   am
    10     2     3    2
    11     2     4    1
    12     4     5   ar
    13     5     6   ar
    14     6     7   ar
    15     7     8   ar
    16     8     9   ar
    17     9    10    1
    18    10    11    1
    19    11    12    2
    20    11    13   am
    21    13    15    1
    22    15    16    1
    23    16    17   ar
    24    17    18   ar
    25    18    19   ar
    26    19    20   ar
    27    20    21   ar
    28    29    24   ar
    29    10     1    1
    30    21    16   ar
    31     9     4   ar
    32    13    14    1
@<TRIPOS>MOLECULE
*****
 29 32 0 0 0
SMALL
GASTEIGER

@<TRIPOS>ATOM
      1 N         142.3804  141.0900  166.4176 N.am    1  UNL1       -0.2640
      2 C         142.5855  141.7857  167.7305 C.2     1  UNL1        0.2495
      3 O         143.7365  142.6802  168.0839 O.2     1  UNL1       -0.2699
      4 C         141.4375  141.4298  168.6280 C.ar    1  UNL1        0.0517
      5 C         141.1069  141.8213  170.0378 C.ar    1  UNL1        0.0043
      6 C         139.8616  141.2971  170.6892 C.ar    1  UNL1        0.0001
      7 C         138.9470  140.3814  169.9310 C.ar    1  UNL1       -0.0003
      8 C         139.2776  139.9900  168.5212 C.ar    1  UNL1       -0.0021
      9 C         140.5229  140.5142  167.8698 C.ar    1  UNL1        0.0089
     10 C         141.1056  140.3041  166.5036 C.3     1  UNL1        0.1753
     11 C         140.5168  139.4569  165.4147 C.2     1  UNL1        0.2452
     12 O         139.2816  139.9117  164.6955 O.2     1  UNL1       -0.2729
     13 N         141.1634  138.1548  165.0450 N.am    1  UNL1       -0.2988
     14 H         141.9742  137.8563  165.5170 H       1  UNL1        0.1498
     15 C         140.5747  137.3077  163.9561 C.3     1  UNL1        0.1164
     16 C         140.7012  137.7334  162.5234 C.ar    1  UNL1       -0.0026
     17 C         142.0586  137.8891  161.9044 C.ar    1  UNL1       -0.0026
     18 C         142.1853  138.3149  160.4716 C.ar    1  UNL1       -0.0003
     19 C         140.9545  138.5850  159.6579 C.ar    1  UNL1       -0.0000
     20 C         139.5970  138.4293  160.2770 C.ar    1  UNL1       -0.0003
     21 C         139.4704  138.0035  161.7097 C.ar    1  UNL1       -0.0026
     22 C         144.1370  139.9863  164.8535 C.3     1  UNL1        0.0265
     23 C         143.2902  141.1666  165.2275 C.3     1  UNL1        0.0989
     24 C         143.3533  142.4235  164.4114 C.ar    1  UNL1       -0.0042
     25 C         144.4215  142.5897  163.3714 C.ar    1  UNL1       -0.0027
     26 C         144.4846  143.8467  162.5553 C.ar    1  UNL1       -0.0003
     27 C         143.4795  144.9375  162.7791 C.ar    1  UNL1       -0.0000
     28 C         142.4114  144.7713  163.8191 C.ar    1  UNL1       -0.0003
     29 C         142.3483  143.5144  164.6352 C.ar    1  UNL1       -0.0027
@<TRIPOS>BOND
     1    22    23    1
     2    23    24    1
     3    24    25   ar
     4    25    26   ar
     5    26    27   ar
     6    27    28   ar
     7    28    29   ar
     8    23     1    1
     9     1     2   am
    10     2     3    2
    11     2     4    1
    12     4     5   ar
    13     5     6   ar
    14     6     7   ar
    15     7     8   ar
    16     8     9   ar
    17     9    10    1
    18    10    11    1
    19    11    12    2
    20    11    13   am
    21    13    15    1
    22    15    16    1
    23    16    17   ar
    24    17    18   ar
    25    18    19   ar
    26    19    20   ar
    27    20    21   ar
    28    29    24   ar
    29    10     1    1
    30    21    16   ar
    31     9     4   ar
    32    13    14    1
