@<TRIPOS>MOLECULE
*****
 34 37 0 0 0
SMALL
GASTEIGER

@<TRIPOS>ATOM
      1 C         142.5897  139.5749  162.1146 C.ar    1  UNL1        0.0207
      2 C         141.4518  140.4848  162.4715 C.ar    1  UNL1        0.0016
      3 C         140.9615  140.5527  163.8876 C.ar    1  UNL1        0.0000
      4 C         141.6090  139.7106  164.9466 C.ar    1  UNL1        0.0000
      5 C         142.7469  138.8006  164.5897 C.ar    1  UNL1        0.0000
      6 C         143.2372  138.7328  163.1737 C.ar    1  UNL1        0.0016
      7 C         141.1187  139.7784  166.3626 C.ar    1  UNL1        0.0000
      8 C         139.6484  139.8743  166.6433 C.ar    1  UNL1        0.0000
      9 C         139.1581  139.9422  168.0593 C.ar    1  UNL1        0.0000
     10 C         140.1381  139.9141  169.1946 C.ar    1  UNL1        0.0016
     11 C         141.6085  139.8182  168.9137 C.ar    1  UNL1        0.0207
     12 C         142.0988  139.7504  167.4978 C.ar    1  UNL1        0.0016
     13 C         142.5886  139.7901  170.0490 C.2     1  UNL1        0.1175
     14 N         143.3357  138.5281  170.3637 N.2     1  UNL1       -0.1798
     15 N         144.3158  138.5000  171.4989 N.pl3   1  UNL1       -0.2359
     16 H         144.6001  139.3409  171.9247 H       1  UNL1        0.1744
     17 C         144.8626  137.1907  171.9855 C.ar    1  UNL1        0.0652
     18 C         144.3166  135.9026  171.4448 C.ar    1  UNL1        0.0183
     19 C         144.8634  134.5932  171.9313 C.ar    1  UNL1        0.0310
     20 C         145.9562  134.5721  172.9586 C.ar    1  UNL1        0.1402
     21 F         146.5031  133.2629  173.4452 F       1  UNL1       -0.2042
     22 C         146.5022  135.8604  173.4993 C.ar    1  UNL1        0.0310
     23 C         145.9554  137.1697  173.0128 C.ar    1  UNL1        0.0183
     24 N         142.6997  138.3462  159.8281 N.2     1  UNL1       -0.1798
     25 C         143.0800  139.5070  160.6986 C.2     1  UNL1        0.1175
     26 N         143.1900  138.2783  158.4122 N.pl3   1  UNL1       -0.2359
     27 H         143.9275  138.8604  158.1181 H       1  UNL1        0.1744
     28 F         140.6566  134.4587  154.5400 F       1  UNL1       -0.2042
     29 C         141.2900  135.4136  155.5081 C.ar    1  UNL1        0.1402
     30 C         140.5719  136.6710  155.8997 C.ar    1  UNL1        0.0310
     31 C         141.2053  137.6259  156.8677 C.ar    1  UNL1        0.0183
     32 C         142.5566  137.3234  157.4441 C.ar    1  UNL1        0.0652
     33 C         143.2747  136.0660  157.0525 C.ar    1  UNL1        0.0183
     34 C         142.6413  135.1111  156.0845 C.ar    1  UNL1        0.0310
@<TRIPOS>BOND
     1    28    29    1
     2    29    30   ar
     3    30    31   ar
     4    31    32   ar
     5    32    26    1
     6    26    24    1
     7    24    25    2
     8    25     1    1
     9     1     2   ar
    10     2     3   ar
    11     3     4   ar
    12     4     7    1
    13     7     8   ar
    14     8     9   ar
    15     9    10   ar
    16    10    11   ar
    17    11    13    1
    18    13    14    2
    19    14    15    1
    20    15    17    1
    21    17    18   ar
    22    18    19   ar
    23    19    20   ar
    24    20    21    1
    25    20    22   ar
    26    22    23   ar
    27    11    12   ar
    28     4     5   ar
    29     5     6   ar
    30    32    33   ar
    31    33    34   ar
    32    34    29   ar
    33     6     1   ar
    34    12     7   ar
    35    23    17   ar
    36    26    27    1
    37    15    16    1
@<TRIPOS>MOLECULE
*****
 34 37 0 0 0
SMALL
GASTEIGER

@<TRIPOS>ATOM
      1 C         140.9333  144.2031  163.7204 C.ar    1  UNL1        0.0207
      2 C         142.1948  143.5971  164.2601 C.ar    1  UNL1        0.0016
      3 C         142.1445  142.7169  165.4737 C.ar    1  UNL1        0.0000
      4 C         140.8327  142.4426  166.1475 C.ar    1  UNL1        0.0000
      5 C         139.5712  143.0487  165.6076 C.ar    1  UNL1        0.0000
      6 C         139.6215  143.9289  164.3941 C.ar    1  UNL1        0.0016
      7 C         140.7824  141.5624  167.3610 C.ar    1  UNL1        0.0000
      8 C         139.4947  140.9021  167.7556 C.ar    1  UNL1        0.0000
      9 C         139.4443  140.0218  168.9691 C.ar    1  UNL1        0.0000
     10 C         140.6817  139.8019  169.7880 C.ar    1  UNL1        0.0016
     11 C         141.9694  140.4623  169.3934 C.ar    1  UNL1        0.0207
     12 C         142.0197  141.3425  168.1799 C.ar    1  UNL1        0.0016
     13 C         143.2068  140.2425  170.2123 C.2     1  UNL1        0.1175
     14 N         143.4278  138.9273  170.8990 N.2     1  UNL1       -0.1798
     15 N         144.6651  138.7074  171.7179 N.pl3   1  UNL1       -0.2359
     16 H         145.2110  139.4762  172.0012 H       1  UNL1        0.1744
     17 C         145.0708  137.3162  172.1052 C.ar    1  UNL1        0.0652
     18 C         144.4572  136.1358  171.4123 C.ar    1  UNL1        0.0183
     19 C         144.8629  134.7445  171.7995 C.ar    1  UNL1        0.0310
     20 C         145.8822  134.5338  172.8796 C.ar    1  UNL1        0.1402
     21 F         146.2879  133.1426  173.2669 F       1  UNL1       -0.2042
     22 C         146.4958  135.7143  173.5725 C.ar    1  UNL1        0.0310
     23 C         146.0901  137.1055  173.1853 C.ar    1  UNL1        0.0183
     24 N         139.8869  145.0164  161.4858 N.2     1  UNL1       -0.1798
     25 C         140.9836  145.0834  162.5068 C.2     1  UNL1        0.1175
     26 N         139.9371  145.8966  160.2722 N.pl3   1  UNL1       -0.2359
     27 H         139.5061  146.7816  160.2879 H       1  UNL1        0.1744
     28 F         142.7648  144.0239  155.3228 F       1  UNL1       -0.2042
     29 C         142.0579  144.4921  156.5601 C.ar    1  UNL1        0.1402
     30 C         141.0138  145.5650  156.4669 C.ar    1  UNL1        0.0310
     31 C         140.3069  146.0331  157.7043 C.ar    1  UNL1        0.0183
     32 C         140.6440  145.4284  159.0349 C.ar    1  UNL1        0.0652
     33 C         141.6881  144.3555  159.1281 C.ar    1  UNL1        0.0183
     34 C         142.3951  143.8874  157.8908 C.ar    1  UNL1        0.0310
@<TRIPOS>BOND
     1    28    29    1
     2    29    30   ar
     3    30    31   ar
     4    31    32   ar
     5    32    26    1
     6    26    24    1
     7    24    25    2
     8    25     1    1
     9     1     2   ar
    10     2     3   ar
    11     3     4   ar
    12     4     7    1
    13     7     8   ar
    14     8     9   ar
    15     9    10   ar
    16    10    11   ar
    17    11    13    1
    18    13    14    2
    19    14    15    1
    20    15    17    1
    21    17    18   ar
    22    18    19   ar
    23    19    20   ar
    24    20    21    1
    25    20    22   ar
    26    22    23   ar
    27    11    12   ar
    28     4     5   ar
    29     5     6   ar
    30    32    33   ar
    31    33    34   ar
    32    34    29   ar
    33     6     1   ar
    34    12     7   ar
    35    23    17   ar
    36    26    27    1
    37    15    16    1
@<TRIPOS>MOLECULE
*****
 34 37 0 0 0
SMALL
GASTEIGER

@<TRIPOS>ATOM
      1 C         141.9211  141.8969  162.4930 C.ar    1  UNL1        0.0207
      2 C         141.4468  140.5109  162.8155 C.ar    1  UNL1        0.0016
      3 C         141.1212  140.1402  164.2321 C.ar    1  UNL1        0.0000
      4 C         141.2699  141.1556  165.3261 C.ar    1  UNL1        0.0000
      5 C         141.7443  142.5417  165.0036 C.ar    1  UNL1        0.0000
      6 C         142.0698  142.9123  163.5870 C.ar    1  UNL1        0.0016
      7 C         140.9444  140.7850  166.7427 C.ar    1  UNL1        0.0000
      8 C         139.5206  140.5380  167.1450 C.ar    1  UNL1        0.0000
      9 C         139.1950  140.1674  168.5616 C.ar    1  UNL1        0.0000
     10 C         140.2932  140.0438  169.5758 C.ar    1  UNL1        0.0016
     11 C         141.7170  140.2908  169.1735 C.ar    1  UNL1        0.0207
     12 C         142.0426  140.6614  167.7569 C.ar    1  UNL1        0.0016
     13 C         142.8152  140.1672  170.1877 C.2     1  UNL1        0.1175
     14 N         143.3642  138.8158  170.5378 N.2     1  UNL1       -0.1798
     15 N         144.4624  138.6922  171.5520 N.pl3   1  UNL1       -0.2359
     16 H         144.8729  139.5014  171.9341 H       1  UNL1        0.1744
     17 C         144.9351  137.3359  171.9841 C.ar    1  UNL1        0.0652
     18 C         145.9880  137.2115  173.0451 C.ar    1  UNL1        0.0183
     19 C         146.4608  135.8550  173.4773 C.ar    1  UNL1        0.0310
     20 C         145.8805  134.6230  172.8483 C.ar    1  UNL1        0.1402
     21 F         146.3532  133.2667  173.2804 F       1  UNL1       -0.2042
     22 C         144.8275  134.7475  171.7873 C.ar    1  UNL1        0.0310
     23 C         144.3548  136.1039  171.3552 C.ar    1  UNL1        0.0183
     24 N         142.5208  143.6985  160.7197 N.2     1  UNL1       -0.1798
     25 C         142.2467  142.2675  161.0764 C.2     1  UNL1        0.1175
     26 N         142.8464  144.0692  159.3032 N.pl3   1  UNL1       -0.2359
     27 H         143.7807  144.0556  158.9931 H       1  UNL1        0.1744
     28 F         138.4547  145.6348  155.5266 F       1  UNL1       -0.2042
     29 C         139.5526  145.2434  156.4708 C.ar    1  UNL1        0.1402
     30 C         140.6335  146.2256  156.8126 C.ar    1  UNL1        0.0310
     31 C         141.7314  145.8342  157.7568 C.ar    1  UNL1        0.0183
     32 C         141.7485  144.4606  158.3590 C.ar    1  UNL1        0.0652
     33 C         140.6676  143.4783  158.0172 C.ar    1  UNL1        0.0183
     34 C         139.5697  143.8697  157.0730 C.ar    1  UNL1        0.0310
@<TRIPOS>BOND
     1    28    29    1
     2    29    30   ar
     3    30    31   ar
     4    31    32   ar
     5    32    26    1
     6    26    24    1
     7    24    25    2
     8    25     1    1
     9     1     2   ar
    10     2     3   ar
    11     3     4   ar
    12     4     7    1
    13     7     8   ar
    14     8     9   ar
    15     9    10   ar
    16    10    11   ar
    17    11    13    1
    18    13    14    2
    19    14    15    1
    20    15    17    1
    21    17    18   ar
    22    18    19   ar
    23    19    20   ar
    24    20    21    1
    25    20    22   ar
    26    22    23   ar
    27    11    12   ar
    28     4     5   ar
    29     5     6   ar
    30    32    33   ar
    31    33    34   ar
    32    34    29   ar
    33     6     1   ar
    34    12     7   ar
    35    23    17   ar
    36    26    27    1
    37    15    16    1
@<TRIPOS>MOLECULE
*****
 34 37 0 0 0
SMALL
GASTEIGER

@<TRIPOS>ATOM
      1 C         142.6005  138.6800  158.9389 C.ar    1  UNL1        0.0207
      2 C         143.3739  138.2722  160.1576 C.ar    1  UNL1        0.0016
      3 C         143.6574  139.2752  161.2364 C.ar    1  UNL1        0.0000
      4 C         143.1673  140.6859  161.0964 C.ar    1  UNL1        0.0000
      5 C         142.3939  141.0937  159.8776 C.ar    1  UNL1        0.0000
      6 C         142.1104  140.0908  158.7988 C.ar    1  UNL1        0.0016
      7 C         143.4508  141.6889  162.1751 C.ar    1  UNL1        0.0000
      8 C         143.9681  143.0503  161.8162 C.ar    1  UNL1        0.0000
      9 C         144.2516  144.0533  162.8950 C.ar    1  UNL1        0.0000
     10 C         144.0177  143.6949  164.3326 C.ar    1  UNL1        0.0016
     11 C         143.5002  142.3334  164.6915 C.ar    1  UNL1        0.0207
     12 C         143.2168  141.3304  163.6128 C.ar    1  UNL1        0.0016
     13 C         143.2663  141.9749  166.1291 C.2     1  UNL1        0.1175
     14 N         143.7337  142.8956  167.2173 N.2     1  UNL1       -0.1798
     15 N         143.4997  142.5371  168.6549 N.pl3   1  UNL1       -0.2359
     16 H         144.2220  142.6503  169.3143 H       1  UNL1        0.1744
     17 C         142.1653  142.0064  169.0880 C.ar    1  UNL1        0.0652
     18 C         141.8921  140.5324  169.0371 C.ar    1  UNL1        0.0183
     19 C         140.5577  140.0015  169.4701 C.ar    1  UNL1        0.0310
     20 C         139.4964  140.9447  169.9541 C.ar    1  UNL1        0.1402
     21 F         138.1620  140.4139  170.3871 F       1  UNL1       -0.2042
     22 C         139.7697  142.4188  170.0049 C.ar    1  UNL1        0.0310
     23 C         141.1041  142.9496  169.5719 C.ar    1  UNL1        0.0183
     24 N         143.3139  137.4553  156.7614 N.2     1  UNL1       -0.1798
     25 C         142.3170  137.6770  157.8600 C.2     1  UNL1        0.1175
     26 N         143.0305  136.4524  155.6826 N.pl3   1  UNL1       -0.2359
     27 H         142.8972  136.7523  154.7544 H       1  UNL1        0.1744
     28 F         142.7092  130.6132  157.0242 F       1  UNL1       -0.2042
     29 C         142.7895  132.0730  156.6888 C.ar    1  UNL1        0.1402
     30 C         141.8642  132.6591  155.6640 C.ar    1  UNL1        0.0310
     31 C         141.9445  134.1189  155.3286 C.ar    1  UNL1        0.0183
     32 C         142.9502  134.9926  156.0180 C.ar    1  UNL1        0.0652
     33 C         143.8755  134.4065  157.0428 C.ar    1  UNL1        0.0183
     34 C         143.7952  132.9467  157.3782 C.ar    1  UNL1        0.0310
@<TRIPOS>BOND
     1    28    29    1
     2    29    30   ar
     3    30    31   ar
     4    31    32   ar
     5    32    26    1
     6    26    24    1
     7    24    25    2
     8    25     1    1
     9     1     2   ar
    10     2     3   ar
    11     3     4   ar
    12     4     7    1
    13     7     8   ar
    14     8     9   ar
    15     9    10   ar
    16    10    11   ar
    17    11    13    1
    18    13    14    2
    19    14    15    1
    20    15    17    1
    21    17    18   ar
    22    18    19   ar
    23    19    20   ar
    24    20    21    1
    25    20    22   ar
    26    22    23   ar
    27    11    12   ar
    28     4     5   ar
    29     5     6   ar
    30    32    33   ar
    31    33    34   ar
    32    34    29   ar
    33     6     1   ar
    34    12     7   ar
    35    23    17   ar
    36    26    27    1
    37    15    16    1
@<TRIPOS>MOLECULE
*****
 34 37 0 0 0
SMALL
GASTEIGER

@<TRIPOS>ATOM
      1 C         141.0588  138.6653  158.8645 C.ar    1  UNL1        0.0207
      2 C         139.5684  138.7412  159.0153 C.ar    1  UNL1        0.0016
      3 C         138.9682  139.4942  160.1654 C.ar    1  UNL1        0.0000
      4 C         139.8585  140.1714  161.1648 C.ar    1  UNL1        0.0000
      5 C         141.3490  140.0955  161.0140 C.ar    1  UNL1        0.0000
      6 C         141.9491  139.3425  159.8639 C.ar    1  UNL1        0.0016
      7 C         139.2584  140.9244  162.3149 C.ar    1  UNL1        0.0000
      8 C         138.1494  141.9048  162.0724 C.ar    1  UNL1        0.0000
      9 C         137.5492  142.6579  163.2225 C.ar    1  UNL1        0.0000
     10 C         138.0581  142.4305  164.6151 C.ar    1  UNL1        0.0016
     11 C         139.1672  141.4501  164.8576 C.ar    1  UNL1        0.0207
     12 C         139.7673  140.6970  163.7075 C.ar    1  UNL1        0.0016
     13 C         139.6761  141.2227  166.2502 C.2     1  UNL1        0.1175
     14 N         139.2008  140.0381  167.0383 N.2     1  UNL1       -0.1798
     15 N         139.7097  139.8107  168.4309 N.pl3   1  UNL1       -0.2359
     16 H         139.4165  139.0202  168.9391 H       1  UNL1        0.1744
     17 C         140.6652  140.7878  169.0491 C.ar    1  UNL1        0.0652
     18 C         140.1500  142.0597  169.6548 C.ar    1  UNL1        0.0183
     19 C         141.1056  143.0368  170.2731 C.ar    1  UNL1        0.0310
     20 C         142.5763  142.7421  170.2856 C.ar    1  UNL1        0.1402
     21 F         143.5318  143.7192  170.9038 F       1  UNL1       -0.2042
     22 C         143.0914  141.4702  169.6798 C.ar    1  UNL1        0.0310
     23 C         142.1359  140.4931  169.0616 C.ar    1  UNL1        0.0183
     24 N         142.8983  137.0925  157.9197 N.2     1  UNL1       -0.1798
     25 C         141.6590  137.9123  157.7144 C.2     1  UNL1        0.1175
     26 N         143.4985  136.3395  156.7696 N.pl3   1  UNL1       -0.2359
     27 H         144.1341  136.7876  156.1660 H       1  UNL1        0.1744
     28 F         142.0254  130.5966  155.8483 F       1  UNL1       -0.2042
     29 C         142.3936  132.0323  156.0786 C.ar    1  UNL1        0.1402
     30 C         141.5805  133.1252  155.4508 C.ar    1  UNL1        0.0310
     31 C         141.9487  134.5609  155.6811 C.ar    1  UNL1        0.0183
     32 C         143.1302  134.9038  156.5393 C.ar    1  UNL1        0.0652
     33 C         143.9434  133.8109  157.1672 C.ar    1  UNL1        0.0183
     34 C         143.5751  132.3752  156.9368 C.ar    1  UNL1        0.0310
@<TRIPOS>BOND
     1    28    29    1
     2    29    30   ar
     3    30    31   ar
     4    31    32   ar
     5    32    26    1
     6    26    24    1
     7    24    25    2
     8    25     1    1
     9     1     2   ar
    10     2     3   ar
    11     3     4   ar
    12     4     7    1
    13     7     8   ar
    14     8     9   ar
    15     9    10   ar
    16    10    11   ar
    17    11    13    1
    18    13    14    2
    19    14    15    1
    20    15    17    1
    21    17    18   ar
    22    18    19   ar
    23    19    20   ar
    24    20    21    1
    25    20    22   ar
    26    22    23   ar
    27    11    12   ar
    28     4     5   ar
    29     5     6   ar
    30    32    33   ar
    31    33    34   ar
    32    34    29   ar
    33     6     1   ar
    34    12     7   ar
    35    23    17   ar
    36    26    27    1
    37    15    16    1
@<TRIPOS>MOLECULE
*****
 34 37 0 0 0
SMALL
GASTEIGER

@<TRIPOS>ATOM
      1 C         140.9182  144.8806  158.6159 C.ar    1  UNL1        0.0207
      2 C         140.5246  145.2385  160.0184 C.ar    1  UNL1        0.0016
      3 C         141.3047  144.6944  161.1784 C.ar    1  UNL1        0.0000
      4 C         142.4784  143.7925  160.9358 C.ar    1  UNL1        0.0000
      5 C         142.8721  143.4346  159.5333 C.ar    1  UNL1        0.0000
      6 C         142.0920  143.9787  158.3734 C.ar    1  UNL1        0.0016
      7 C         143.2585  143.2484  162.0957 C.ar    1  UNL1        0.0000
      8 C         144.5781  142.5746  161.8620 C.ar    1  UNL1        0.0000
      9 C         145.3582  142.0305  163.0219 C.ar    1  UNL1        0.0000
     10 C         144.8188  142.1603  164.4155 C.ar    1  UNL1        0.0016
     11 C         143.4991  142.8341  164.6492 C.ar    1  UNL1        0.0207
     12 C         142.7191  143.3782  163.4893 C.ar    1  UNL1        0.0016
     13 C         142.9597  142.9639  166.0428 C.2     1  UNL1        0.1175
     14 N         143.8116  142.5784  167.2158 N.2     1  UNL1       -0.1798
     15 N         143.2721  142.7082  168.6094 N.pl3   1  UNL1       -0.2359
     16 H         143.7703  143.2238  169.2840 H       1  UNL1        0.1744
     17 C         141.9737  142.0523  168.9751 C.ar    1  UNL1        0.0652
     18 C         141.6854  140.6531  168.5180 C.ar    1  UNL1        0.0183
     19 C         140.3868  139.9972  168.8837 C.ar    1  UNL1        0.0310
     20 C         139.3767  140.7406  169.7065 C.ar    1  UNL1        0.1402
     21 F         138.0782  140.0848  170.0722 F       1  UNL1       -0.2042
     22 C         139.6650  142.1399  170.1635 C.ar    1  UNL1        0.0310
     23 C         140.9635  142.7957  169.7978 C.ar    1  UNL1        0.0183
     24 N         140.8509  146.1113  156.3288 N.2     1  UNL1       -0.1798
     25 C         140.1381  145.4247  157.4559 C.2     1  UNL1        0.1175
     26 N         140.0709  146.6553  155.1688 N.pl3   1  UNL1       -0.2359
     27 H         139.8698  146.0784  154.3969 H       1  UNL1        0.1744
     28 F         138.1760  152.3479  155.2336 F       1  UNL1       -0.2042
     29 C         138.6498  150.9248  155.2174 C.ar    1  UNL1        0.1402
     30 C         139.4890  150.4265  154.0783 C.ar    1  UNL1        0.0310
     31 C         139.9627  149.0034  154.0622 C.ar    1  UNL1        0.0183
     32 C         139.5972  148.0785  155.1850 C.ar    1  UNL1        0.0652
     33 C         138.7580  148.5767  156.3241 C.ar    1  UNL1        0.0183
     34 C         138.2843  149.9998  156.3402 C.ar    1  UNL1        0.0310
@<TRIPOS>BOND
     1    28    29    1
     2    29    30   ar
     3    30    31   ar
     4    31    32   ar
     5    32    26    1
     6    26    24    1
     7    24    25    2
     8    25     1    1
     9     1     2   ar
    10     2     3   ar
    11     3     4   ar
    12     4     7    1
    13     7     8   ar
    14     8     9   ar
    15     9    10   ar
    16    10    11   ar
    17    11    13    1
    18    13    14    2
    19    14    15    1
    20    15    17    1
    21    17    18   ar
    22    18    19   ar
    23    19    20   ar
    24    20    21    1
    25    20    22   ar
    26    22    23   ar
    27    11    12   ar
    28     4     5   ar
    29     5     6   ar
    30    32    33   ar
    31    33    34   ar
    32    34    29   ar
    33     6     1   ar
    34    12     7   ar
    35    23    17   ar
    36    26    27    1
    37    15    16    1
@<TRIPOS>MOLECULE
*****
 34 37 0 0 0
SMALL
GASTEIGER

@<TRIPOS>ATOM
      1 C         143.8355  140.5262  158.3570 C.ar    1  UNL1        0.0207
      2 C         143.1915  139.1733  158.4263 C.ar    1  UNL1        0.0016
      3 C         142.7221  138.6327  159.7445 C.ar    1  UNL1        0.0000
      4 C         142.8967  139.4451  160.9933 C.ar    1  UNL1        0.0000
      5 C         143.5408  140.7981  160.9239 C.ar    1  UNL1        0.0000
      6 C         144.0101  141.3386  159.6058 C.ar    1  UNL1        0.0016
      7 C         142.4274  138.9045  162.3114 C.ar    1  UNL1        0.0000
      8 C         141.6139  137.6452  162.3587 C.ar    1  UNL1        0.0000
      9 C         141.1445  137.1046  163.6769 C.ar    1  UNL1        0.0000
     10 C         141.4886  137.8234  164.9477 C.ar    1  UNL1        0.0016
     11 C         142.3021  139.0828  164.9003 C.ar    1  UNL1        0.0207
     12 C         142.7715  139.6233  163.5822 C.ar    1  UNL1        0.0016
     13 C         142.6462  139.8016  166.1711 C.2     1  UNL1        0.1175
     14 N         142.6773  139.0537  167.4710 N.2     1  UNL1       -0.1798
     15 N         143.0214  139.7725  168.7418 N.pl3   1  UNL1       -0.2359
     16 H         143.8712  139.5815  169.2007 H       1  UNL1        0.1744
     17 C         142.0708  140.7823  169.3133 C.ar    1  UNL1        0.0652
     18 C         142.5036  142.2086  169.4814 C.ar    1  UNL1        0.0183
     19 C         141.5529  143.2184  170.0529 C.ar    1  UNL1        0.0310
     20 C         140.1696  142.8018  170.4565 C.ar    1  UNL1        0.1402
     21 F         139.2190  143.8116  171.0280 F       1  UNL1       -0.2042
     22 C         139.7369  141.3754  170.2884 C.ar    1  UNL1        0.0310
     23 C         140.6875  140.3657  169.7169 C.ar    1  UNL1        0.0183
     24 N         144.9544  142.4171  156.9705 N.2     1  UNL1       -0.1798
     25 C         144.3049  141.0668  157.0388 C.2     1  UNL1        0.1175
     26 N         145.4238  142.9577  155.6524 N.pl3   1  UNL1       -0.2359
     27 H         144.8582  143.5868  155.1488 H       1  UNL1        0.1744
     28 F         150.7484  141.2863  153.4490 F       1  UNL1       -0.2042
     29 C         149.4172  141.7042  153.9998 C.ar    1  UNL1        0.1402
     30 C         149.2043  141.7623  155.4835 C.ar    1  UNL1        0.0310
     31 C         147.8732  142.1802  156.0343 C.ar    1  UNL1        0.0183
     32 C         146.7550  142.5399  155.1015 C.ar    1  UNL1        0.0652
     33 C         146.9679  142.4817  153.6179 C.ar    1  UNL1        0.0183
     34 C         148.2990  142.0639  153.0670 C.ar    1  UNL1        0.0310
@<TRIPOS>BOND
     1    28    29    1
     2    29    30   ar
     3    30    31   ar
     4    31    32   ar
     5    32    26    1
     6    26    24    1
     7    24    25    2
     8    25     1    1
     9     1     2   ar
    10     2     3   ar
    11     3     4   ar
    12     4     7    1
    13     7     8   ar
    14     8     9   ar
    15     9    10   ar
    16    10    11   ar
    17    11    13    1
    18    13    14    2
    19    14    15    1
    20    15    17    1
    21    17    18   ar
    22    18    19   ar
    23    19    20   ar
    24    20    21    1
    25    20    22   ar
    26    22    23   ar
    27    11    12   ar
    28     4     5   ar
    29     5     6   ar
    30    32    33   ar
    31    33    34   ar
    32    34    29   ar
    33     6     1   ar
    34    12     7   ar
    35    23    17   ar
    36    26    27    1
    37    15    16    1
@<TRIPOS>MOLECULE
*****
 34 37 0 0 0
SMALL
GASTEIGER

@<TRIPOS>ATOM
      1 C         138.0082  141.6305  157.9936 C.ar    1  UNL1        0.0207
      2 C         138.7033  142.9558  157.8927 C.ar    1  UNL1        0.0016
      3 C         139.5374  143.4542  159.0355 C.ar    1  UNL1        0.0000
      4 C         139.6764  142.6271  160.2792 C.ar    1  UNL1        0.0000
      5 C         138.9812  141.3017  160.3800 C.ar    1  UNL1        0.0000
      6 C         138.1472  140.8034  159.2372 C.ar    1  UNL1        0.0016
      7 C         140.5104  143.1254  161.4220 C.ar    1  UNL1        0.0000
      8 C         140.9132  144.5690  161.4829 C.ar    1  UNL1        0.0000
      9 C         141.7473  145.0674  162.6258 C.ar    1  UNL1        0.0000
     10 C         142.1785  144.1221  163.7076 C.ar    1  UNL1        0.0016
     11 C         141.7757  142.6784  163.6466 C.ar    1  UNL1        0.0207
     12 C         140.9417  142.1801  162.5038 C.ar    1  UNL1        0.0016
     13 C         142.2070  141.7331  164.7285 C.2     1  UNL1        0.1175
     14 N         141.7689  140.2990  164.6899 N.2     1  UNL1       -0.1798
     15 N         142.2002  139.3537  165.7717 N.pl3   1  UNL1       -0.2359
     16 H         142.7935  138.5979  165.5573 H       1  UNL1        0.1744
     17 C         141.7276  139.5600  167.1803 C.ar    1  UNL1        0.0652
     18 C         142.6747  139.3597  168.3260 C.ar    1  UNL1        0.0183
     19 C         142.2021  139.5660  169.7347 C.ar    1  UNL1        0.0310
     20 C         140.7823  139.9725  169.9974 C.ar    1  UNL1        0.1402
     21 F         140.3097  140.1788  171.4060 F       1  UNL1       -0.2042
     22 C         139.8352  140.1728  168.8516 C.ar    1  UNL1        0.0310
     23 C         140.3078  139.9665  167.4431 C.ar    1  UNL1        0.0183
     24 N         135.8824  140.4188  157.1201 N.2     1  UNL1       -0.1798
     25 C         137.1742  141.1321  156.8507 C.2     1  UNL1        0.1175
     26 N         135.0483  139.9205  155.9774 N.pl3   1  UNL1       -0.2359
     27 H         135.4831  139.5816  155.1617 H       1  UNL1        0.1744
     28 F         129.0621  139.9924  156.3774 F       1  UNL1       -0.2042
     29 C         130.5587  139.9744  156.2774 C.ar    1  UNL1        0.1402
     30 C         131.2866  141.1563  155.7090 C.ar    1  UNL1        0.0310
     31 C         132.7832  141.1383  155.6089 C.ar    1  UNL1        0.0183
     32 C         133.5518  139.9384  156.0774 C.ar    1  UNL1        0.0652
     33 C         132.8238  138.7566  156.6459 C.ar    1  UNL1        0.0183
     34 C         131.3273  138.7745  156.7459 C.ar    1  UNL1        0.0310
@<TRIPOS>BOND
     1    28    29    1
     2    29    30   ar
     3    30    31   ar
     4    31    32   ar
     5    32    26    1
     6    26    24    1
     7    24    25    2
     8    25     1    1
     9     1     2   ar
    10     2     3   ar
    11     3     4   ar
    12     4     7    1
    13     7     8   ar
    14     8     9   ar
    15     9    10   ar
    16    10    11   ar
    17    11    13    1
    18    13    14    2
    19    14    15    1
    20    15    17    1
    21    17    18   ar
    22    18    19   ar
    23    19    20   ar
    24    20    21    1
    25    20    22   ar
    26    22    23   ar
    27    11    12   ar
    28     4     5   ar
    29     5     6   ar
    30    32    33   ar
    31    33    34   ar
    32    34    29   ar
    33     6     1   ar
    34    12     7   ar
    35    23    17   ar
    36    26    27    1
    37    15    16    1
@<TRIPOS>MOLECULE
*****
 34 37 0 0 0
SMALL
GASTEIGER

@<TRIPOS>ATOM
      1 C         142.2997  139.7630  164.3409 C.ar    1  UNL1        0.0207
      2 C         143.6839  139.5766  163.7939 C.ar    1  UNL1        0.0016
      3 C         143.8986  139.4831  162.3123 C.ar    1  UNL1        0.0000
      4 C         142.7291  139.5759  161.3776 C.ar    1  UNL1        0.0000
      5 C         141.3448  139.7623  161.9247 C.ar    1  UNL1        0.0000
      6 C         141.1302  139.8558  163.4062 C.ar    1  UNL1        0.0016
      7 C         142.9437  139.4824  159.8961 C.ar    1  UNL1        0.0000
      8 C         143.5596  140.6310  159.1535 C.ar    1  UNL1        0.0000
      9 C         143.7743  140.5375  157.6719 C.ar    1  UNL1        0.0000
     10 C         143.3731  139.2954  156.9328 C.ar    1  UNL1        0.0016
     11 C         142.7572  138.1467  157.6754 C.ar    1  UNL1        0.0207
     12 C         142.5425  138.2403  159.1570 C.ar    1  UNL1        0.0016
     13 C         142.3560  136.9046  156.9364 C.2     1  UNL1        0.1175
     14 N         143.0239  135.5980  157.2476 N.2     1  UNL1       -0.1798
     15 N         142.6227  134.3559  156.5086 N.pl3   1  UNL1       -0.2359
     16 H         141.9494  134.4053  155.7920 H       1  UNL1        0.1744
     17 C         143.2473  133.0386  156.8613 C.ar    1  UNL1        0.0652
     18 C         144.5125  133.0000  157.6661 C.ar    1  UNL1        0.0183
     19 C         145.1371  131.6826  158.0189 C.ar    1  UNL1        0.0310
     20 C         144.4965  130.4038  157.5669 C.ar    1  UNL1        0.1402
     21 F         145.1210  129.0865  157.9196 F       1  UNL1       -0.2042
     22 C         143.2312  130.4425  156.7621 C.ar    1  UNL1        0.0310
     23 C         142.6066  131.7598  156.4093 C.ar    1  UNL1        0.0183
     24 N         140.6924  139.8568  166.3800 N.2     1  UNL1       -0.1798
     25 C         142.0850  139.8565  165.8225 C.2     1  UNL1        0.1175
     26 N         140.4777  139.9503  167.8615 N.pl3   1  UNL1       -0.2359
     27 H         139.8331  139.3521  168.3042 H       1  UNL1        0.1744
     28 F         143.5468  143.9699  171.0900 F       1  UNL1       -0.2042
     29 C         142.7795  142.9650  170.2829 C.ar    1  UNL1        0.1402
     30 C         141.3974  143.2895  169.7989 C.ar    1  UNL1        0.0310
     31 C         140.6301  142.2846  168.9918 C.ar    1  UNL1        0.0183
     32 C         141.2450  140.9552  168.6687 C.ar    1  UNL1        0.0652
     33 C         142.6271  140.6307  169.1526 C.ar    1  UNL1        0.0183
     34 C         143.3944  141.6356  169.9597 C.ar    1  UNL1        0.0310
@<TRIPOS>BOND
     1    28    29    1
     2    29    30   ar
     3    30    31   ar
     4    31    32   ar
     5    32    26    1
     6    26    24    1
     7    24    25    2
     8    25     1    1
     9     1     2   ar
    10     2     3   ar
    11     3     4   ar
    12     4     7    1
    13     7     8   ar
    14     8     9   ar
    15     9    10   ar
    16    10    11   ar
    17    11    13    1
    18    13    14    2
    19    14    15    1
    20    15    17    1
    21    17    18   ar
    22    18    19   ar
    23    19    20   ar
    24    20    21    1
    25    20    22   ar
    26    22    23   ar
    27    11    12   ar
    28     4     5   ar
    29     5     6   ar
    30    32    33   ar
    31    33    34   ar
    32    34    29   ar
    33     6     1   ar
    34    12     7   ar
    35    23    17   ar
    36    26    27    1
    37    15    16    1
