@<TRIPOS>MOLECULE
*****
 30 33 0 0 0
SMALL
GASTEIGER

@<TRIPOS>ATOM
      1 C         140.9982  141.6555  165.3977 C.ar    1  UNL1        0.0921
      2 C         140.9445  142.1330  166.8187 C.ar    1  UNL1        0.1671
      3 O         140.0462  143.3331  166.8708 O.2     1  UNL1       -0.4518
      4 C         139.5447  143.5974  165.4821 C.ar    1  UNL1        0.1455
      5 C         138.6283  144.6482  164.9289 C.ar    1  UNL1        0.0406
      6 C         138.3003  144.6622  163.4653 C.ar    1  UNL1        0.0395
      7 C         138.8886  143.6254  162.5549 C.ar    1  UNL1        0.1311
      8 O         138.5605  143.6394  161.0912 O.3     1  UNL1       -0.5058
      9 C         139.8050  142.5746  163.1080 C.ar    1  UNL1        0.0308
     10 C         140.1330  142.5606  164.5716 C.ar    1  UNL1        0.0422
     11 H         137.9881  144.2959  160.7457 H       1  UNL1        0.2922
     12 C         141.6630  141.5182  167.9831 C.ar    1  UNL1        0.1161
     13 C         142.7718  142.2674  168.6607 C.ar    1  UNL1        0.0254
     14 C         143.4902  141.6527  169.8251 C.ar    1  UNL1        0.0399
     15 C         143.0999  140.2886  170.3119 C.ar    1  UNL1        0.1528
     16 O         143.8184  139.6738  171.4763 O.3     1  UNL1       -0.5039
     17 C         141.9912  139.5394  169.6343 C.ar    1  UNL1        0.1354
     18 N         141.2727  140.1541  168.4699 N.ar    1  UNL1       -0.2376
     19 H         144.5110  140.1419  171.8996 H       1  UNL1        0.2923
     20 C         141.8991  137.9641  164.2522 C.3     1  UNL1        0.1109
     21 N         141.1175  139.1401  164.7583 N.am    1  UNL1       -0.2991
     22 C         141.7797  140.4795  164.8916 C.2     1  UNL1        0.2490
     23 O         143.2234  140.6427  164.5189 O.2     1  UNL1       -0.2700
     24 H         140.1699  139.0330  165.0030 H       1  UNL1        0.1498
     25 C         140.3933  141.5378  162.1976 C.3     1  UNL1        0.1023
     26 N         139.6783  140.2372  161.9810 N.3     1  UNL1       -0.2689
     27 C         138.3441  139.8586  162.5527 C.3     1  UNL1        0.0724
     28 C         138.0131  138.4741  162.0797 C.3     1  UNL1        0.0188
     29 C         139.1427  137.9970  161.2157 C.3     1  UNL1        0.0188
     30 C         140.1718  139.0866  161.1547 C.3     1  UNL1        0.0724
@<TRIPOS>BOND
     1    20    21    1
     2    21    22   am
     3    22    23    2
     4    22     1    1
     5     1     2   ar
     6     2    12    1
     7    12    13   ar
     8    13    14   ar
     9    14    15   ar
    10    15    16    1
    11    15    17   ar
    12    17    18   ar
    13     2     3   ar
    14     3     4   ar
    15     4     5   ar
    16     5     6   ar
    17     6     7   ar
    18     7     8    1
    19     7     9   ar
    20     9    25    1
    21    25    26    1
    22    26    27    1
    23    27    28    1
    24    28    29    1
    25    29    30    1
    26     9    10   ar
    27    10     1   ar
    28    18    12   ar
    29    10     4   ar
    30    30    26    1
    31    21    24    1
    32    16    19    1
    33     8    11    1
@<TRIPOS>MOLECULE
*****
 30 33 0 0 0
SMALL
GASTEIGER

@<TRIPOS>ATOM
      1 C         142.2191  142.9840  165.3447 C.ar    1  UNL1        0.0921
      2 C         141.4524  142.6237  166.5825 C.ar    1  UNL1        0.1671
      3 O         140.0689  143.1883  166.4516 O.2     1  UNL1       -0.4518
      4 C         139.9806  143.8977  165.1329 C.ar    1  UNL1        0.1455
      5 C         138.8618  144.6423  164.4666 C.ar    1  UNL1        0.0406
      6 C         139.0720  145.2606  163.1163 C.ar    1  UNL1        0.0395
      7 C         140.4009  145.1343  162.4322 C.ar    1  UNL1        0.1311
      8 O         140.6110  145.7527  161.0818 O.3     1  UNL1       -0.5058
      9 C         141.5197  144.3897  163.0984 C.ar    1  UNL1        0.0308
     10 C         141.3095  143.7714  164.4488 C.ar    1  UNL1        0.0422
     11 H         139.9122  146.2178  160.6656 H       1  UNL1        0.2922
     12 C         141.9770  141.8368  167.7468 C.ar    1  UNL1        0.1161
     13 C         142.9480  142.4664  168.7011 C.ar    1  UNL1        0.0254
     14 C         143.4726  141.6795  169.8654 C.ar    1  UNL1        0.0399
     15 C         143.0262  140.2630  170.0754 C.ar    1  UNL1        0.1528
     16 O         143.5508  139.4761  171.2397 O.3     1  UNL1       -0.5039
     17 C         142.0552  139.6334  169.1212 C.ar    1  UNL1        0.1354
     18 N         141.5306  140.4203  167.9569 N.ar    1  UNL1       -0.2376
     19 H         144.1574  139.8695  171.8358 H       1  UNL1        0.2923
     20 C         145.3850  141.0096  163.9922 C.3     1  UNL1        0.1109
     21 N         143.9590  141.3728  164.2830 N.am    1  UNL1       -0.2991
     22 C         143.6451  142.6208  165.0538 C.2     1  UNL1        0.2490
     23 O         144.7573  143.5055  165.5337 O.2     1  UNL1       -0.2700
     24 H         143.2290  140.7921  163.9680 H       1  UNL1        0.1498
     25 C         142.8486  144.2635  162.4143 C.3     1  UNL1        0.1023
     26 N         143.1319  143.0790  161.5387 N.3     1  UNL1       -0.2689
     27 C         142.1679  141.9797  161.2035 C.3     1  UNL1        0.0724
     28 C         142.8692  141.0071  160.3021 C.3     1  UNL1        0.0188
     29 C         144.2665  141.5054  160.0802 C.3     1  UNL1        0.0188
     30 C         144.4289  142.7858  160.8444 C.3     1  UNL1        0.0724
@<TRIPOS>BOND
     1    20    21    1
     2    21    22   am
     3    22    23    2
     4    22     1    1
     5     1     2   ar
     6     2    12    1
     7    12    13   ar
     8    13    14   ar
     9    14    15   ar
    10    15    16    1
    11    15    17   ar
    12    17    18   ar
    13     2     3   ar
    14     3     4   ar
    15     4     5   ar
    16     5     6   ar
    17     6     7   ar
    18     7     8    1
    19     7     9   ar
    20     9    25    1
    21    25    26    1
    22    26    27    1
    23    27    28    1
    24    28    29    1
    25    29    30    1
    26     9    10   ar
    27    10     1   ar
    28    18    12   ar
    29    10     4   ar
    30    30    26    1
    31    21    24    1
    32    16    19    1
    33     8    11    1
@<TRIPOS>MOLECULE
*****
 30 33 0 0 0
SMALL
GASTEIGER

@<TRIPOS>ATOM
      1 C         139.5838  141.4455  165.9165 C.ar    1  UNL1        0.0921
      2 C         140.1719  142.3140  166.9888 C.ar    1  UNL1        0.1671
      3 O         140.0657  143.7412  166.5395 O.2     1  UNL1       -0.4518
      4 C         139.4119  143.7547  165.1896 C.ar    1  UNL1        0.1455
      5 C         139.0493  144.8757  164.2612 C.ar    1  UNL1        0.0406
      6 C         138.3889  144.5779  162.9478 C.ar    1  UNL1        0.0395
      7 C         138.0911  143.1591  162.5627 C.ar    1  UNL1        0.1311
      8 O         137.4306  142.8612  161.2492 O.3     1  UNL1       -0.5058
      9 C         138.4537  142.0381  163.4911 C.ar    1  UNL1        0.0308
     10 C         139.1141  142.3359  164.8045 C.ar    1  UNL1        0.0422
     11 H         137.2041  143.5615  160.6693 H       1  UNL1        0.2922
     12 C         140.7626  141.8387  168.2831 C.ar    1  UNL1        0.1161
     13 C         142.1289  141.2201  168.3016 C.ar    1  UNL1        0.0254
     14 C         142.7196  140.7448  169.5960 C.ar    1  UNL1        0.0399
     15 C         141.9439  140.8882  170.8718 C.ar    1  UNL1        0.1528
     16 O         142.5346  140.4130  172.1661 O.3     1  UNL1       -0.5039
     17 C         140.5776  141.5069  170.8533 C.ar    1  UNL1        0.1354
     18 N         139.9869  141.9821  169.5589 N.ar    1  UNL1       -0.2376
     19 H         143.3881  140.0265  172.1776 H       1  UNL1        0.2923
     20 C         138.0627  137.7962  166.2615 C.3     1  UNL1        0.1109
     21 N         138.1634  139.2924  166.2278 N.am    1  UNL1       -0.2991
     22 C         139.4831  139.9493  165.9502 C.2     1  UNL1        0.2490
     23 O         140.7020  139.1098  165.7064 O.2     1  UNL1       -0.2700
     24 H         137.3633  139.8434  166.3878 H       1  UNL1        0.1498
     25 C         138.1559  140.6193  163.1060 C.3     1  UNL1        0.1023
     26 N         139.2657  139.7149  162.6585 N.3     1  UNL1       -0.2689
     27 C         139.2164  138.2165  162.6089 C.3     1  UNL1        0.0724
     28 C         140.5400  137.7256  162.1017 C.3     1  UNL1        0.0188
     29 C         141.4074  138.9207  161.8378 C.3     1  UNL1        0.0188
     30 C         140.6199  140.1500  162.1819 C.3     1  UNL1        0.0724
@<TRIPOS>BOND
     1    20    21    1
     2    21    22   am
     3    22    23    2
     4    22     1    1
     5     1     2   ar
     6     2    12    1
     7    12    13   ar
     8    13    14   ar
     9    14    15   ar
    10    15    16    1
    11    15    17   ar
    12    17    18   ar
    13     2     3   ar
    14     3     4   ar
    15     4     5   ar
    16     5     6   ar
    17     6     7   ar
    18     7     8    1
    19     7     9   ar
    20     9    25    1
    21    25    26    1
    22    26    27    1
    23    27    28    1
    24    28    29    1
    25    29    30    1
    26     9    10   ar
    27    10     1   ar
    28    18    12   ar
    29    10     4   ar
    30    30    26    1
    31    21    24    1
    32    16    19    1
    33     8    11    1
@<TRIPOS>MOLECULE
*****
 30 33 0 0 0
SMALL
GASTEIGER

@<TRIPOS>ATOM
      1 C         141.5275  142.8886  165.3743 C.ar    1  UNL1        0.0921
      2 C         140.4449  143.0010  166.4064 C.ar    1  UNL1        0.1671
      3 O         139.3732  143.8960  165.8583 O.2     1  UNL1       -0.4518
      4 C         139.7934  144.3367  164.4875 C.ar    1  UNL1        0.1455
      5 C         139.1357  145.2246  163.4731 C.ar    1  UNL1        0.0406
      6 C         139.8095  145.4898  162.1594 C.ar    1  UNL1        0.0395
      7 C         141.1410  144.8672  161.8603 C.ar    1  UNL1        0.1311
      8 O         141.8148  145.1324  160.5466 O.3     1  UNL1       -0.5058
      9 C         141.7987  143.9793  162.8747 C.ar    1  UNL1        0.0308
     10 C         141.1249  143.7141  164.1883 C.ar    1  UNL1        0.0422
     11 H         141.4039  145.6870  159.9129 H       1  UNL1        0.2922
     12 C         140.4356  142.3353  167.7505 C.ar    1  UNL1        0.1161
     13 C         140.1247  140.8720  167.8606 C.ar    1  UNL1        0.0254
     14 C         140.1154  140.2063  169.2048 C.ar    1  UNL1        0.0399
     15 C         140.4171  141.0038  170.4388 C.ar    1  UNL1        0.1528
     16 O         140.4078  140.3381  171.7830 O.3     1  UNL1       -0.5039
     17 C         140.7281  142.4671  170.3287 C.ar    1  UNL1        0.1354
     18 N         140.7373  143.1328  168.9846 N.ar    1  UNL1       -0.2376
     19 H         140.2136  139.4241  171.8518 H       1  UNL1        0.2923
     20 C         144.0974  139.8722  165.1564 C.3     1  UNL1        0.1109
     21 N         142.8339  140.6700  165.0256 N.am    1  UNL1       -0.2991
     22 C         142.7910  142.0908  165.5051 C.2     1  UNL1        0.2490
     23 O         144.0115  142.7135  166.1152 O.2     1  UNL1       -0.2700
     24 H         142.0328  140.2612  164.6251 H       1  UNL1        0.1498
     25 C         143.1302  143.3567  162.5755 C.3     1  UNL1        0.1023
     26 N         143.1996  141.9646  162.0216 N.3     1  UNL1       -0.2689
     27 C         144.4506  141.1716  161.7837 C.3     1  UNL1        0.0724
     28 C         144.0544  139.8378  161.2233 C.3     1  UNL1        0.0188
     29 C         142.5586  139.8064  161.1148 C.3     1  UNL1        0.0188
     30 C         142.0304  141.1207  161.6081 C.3     1  UNL1        0.0724
@<TRIPOS>BOND
     1    20    21    1
     2    21    22   am
     3    22    23    2
     4    22     1    1
     5     1     2   ar
     6     2    12    1
     7    12    13   ar
     8    13    14   ar
     9    14    15   ar
    10    15    16    1
    11    15    17   ar
    12    17    18   ar
    13     2     3   ar
    14     3     4   ar
    15     4     5   ar
    16     5     6   ar
    17     6     7   ar
    18     7     8    1
    19     7     9   ar
    20     9    25    1
    21    25    26    1
    22    26    27    1
    23    27    28    1
    24    28    29    1
    25    29    30    1
    26     9    10   ar
    27    10     1   ar
    28    18    12   ar
    29    10     4   ar
    30    30    26    1
    31    21    24    1
    32    16    19    1
    33     8    11    1
@<TRIPOS>MOLECULE
*****
 30 33 0 0 0
SMALL
GASTEIGER

@<TRIPOS>ATOM
      1 C         140.6427  140.5461  165.1382 C.ar    1  UNL1        0.0921
      2 C         140.4632  139.6162  166.3014 C.ar    1  UNL1        0.1671
      3 O         139.7792  138.3776  165.8033 O.2     1  UNL1       -0.4518
      4 C         139.5359  138.5421  164.3323 C.ar    1  UNL1        0.1455
      5 C         138.8975  137.6446  163.3141 C.ar    1  UNL1        0.0406
      6 C         138.7927  138.0874  161.8848 C.ar    1  UNL1        0.0395
      7 C         139.3264  139.4276  161.4737 C.ar    1  UNL1        0.1311
      8 O         139.2216  139.8703  160.0443 O.3     1  UNL1       -0.5058
      9 C         139.9649  140.3250  162.4920 C.ar    1  UNL1        0.0308
     10 C         140.0696  139.8823  163.9213 C.ar    1  UNL1        0.0422
     11 H         138.8227  139.3097  159.4083 H       1  UNL1        0.2922
     12 C         140.8923  139.8787  167.7145 C.ar    1  UNL1        0.1161
     13 C         142.3398  140.1180  168.0266 C.ar    1  UNL1        0.0254
     14 C         142.7689  140.3805  169.4397 C.ar    1  UNL1        0.0399
     15 C         141.7505  140.4038  170.5408 C.ar    1  UNL1        0.1528
     16 O         142.1797  140.6664  171.9539 O.3     1  UNL1       -0.5039
     17 C         140.3031  140.1646  170.2287 C.ar    1  UNL1        0.1354
     18 N         139.8739  139.9020  168.8156 N.ar    1  UNL1       -0.2376
     19 H         143.0839  140.8158  172.1489 H       1  UNL1        0.2923
     20 C         143.3461  143.4304  164.7878 C.3     1  UNL1        0.1109
     21 N         142.7060  142.0746  164.7421 N.am    1  UNL1       -0.2991
     22 C         141.2829  141.9019  165.1839 C.2     1  UNL1        0.2490
     23 O         140.5001  143.0849  165.6714 O.2     1  UNL1       -0.2700
     24 H         143.2198  141.2982  164.4221 H       1  UNL1        0.1498
     25 C         140.4986  141.6653  162.0809 C.3     1  UNL1        0.1023
     26 N         139.7120  142.9081  162.3751 N.3     1  UNL1       -0.2689
     27 C         140.2322  144.3141  162.3216 C.3     1  UNL1        0.0724
     28 C         139.1088  145.2382  162.6879 C.3     1  UNL1        0.0188
     29 C         137.8943  144.4034  162.9678 C.3     1  UNL1        0.0188
     30 C         138.2671  142.9634  162.7745 C.3     1  UNL1        0.0724
@<TRIPOS>BOND
     1    20    21    1
     2    21    22   am
     3    22    23    2
     4    22     1    1
     5     1     2   ar
     6     2    12    1
     7    12    13   ar
     8    13    14   ar
     9    14    15   ar
    10    15    16    1
    11    15    17   ar
    12    17    18   ar
    13     2     3   ar
    14     3     4   ar
    15     4     5   ar
    16     5     6   ar
    17     6     7   ar
    18     7     8    1
    19     7     9   ar
    20     9    25    1
    21    25    26    1
    22    26    27    1
    23    27    28    1
    24    28    29    1
    25    29    30    1
    26     9    10   ar
    27    10     1   ar
    28    18    12   ar
    29    10     4   ar
    30    30    26    1
    31    21    24    1
    32    16    19    1
    33     8    11    1
@<TRIPOS>MOLECULE
*****
 30 33 0 0 0
SMALL
GASTEIGER

@<TRIPOS>ATOM
      1 C         140.9750  141.2416  165.4633 C.ar    1  UNL1        0.0921
      2 C         140.9345  140.8686  166.9156 C.ar    1  UNL1        0.1671
      3 O         140.1957  139.5691  167.0399 O.2     1  UNL1       -0.4518
      4 C         139.7795  139.1390  165.6645 C.ar    1  UNL1        0.1455
      5 C         139.0243  137.9397  165.1734 C.ar    1  UNL1        0.0406
      6 C         138.7507  137.7741  163.7079 C.ar    1  UNL1        0.0395
      7 C         139.2323  138.8078  162.7335 C.ar    1  UNL1        0.1311
      8 O         138.9587  138.6422  161.2680 O.3     1  UNL1       -0.5058
      9 C         139.9876  140.0071  163.2246 C.ar    1  UNL1        0.0308
     10 C         140.2612  140.1727  164.6901 C.ar    1  UNL1        0.0422
     11 H         138.4869  137.8930  160.9612 H       1  UNL1        0.2922
     12 C         141.5286  141.6566  168.0453 C.ar    1  UNL1        0.1161
     13 C         140.7084  142.6996  168.7449 C.ar    1  UNL1        0.0254
     14 C         141.3025  143.4876  169.8746 C.ar    1  UNL1        0.0399
     15 C         142.7167  143.2327  170.3046 C.ar    1  UNL1        0.1528
     16 O         143.3107  144.0208  171.4342 O.3     1  UNL1       -0.5039
     17 C         143.5369  142.1898  169.6049 C.ar    1  UNL1        0.1354
     18 N         142.9428  141.4017  168.4753 N.ar    1  UNL1       -0.2376
     19 H         142.7984  144.6723  171.8712 H       1  UNL1        0.2923
     20 C         143.7137  143.6796  163.9447 C.3     1  UNL1        0.1109
     21 N         143.0721  142.4530  164.5224 N.am    1  UNL1       -0.2991
     22 C         141.6167  142.4682  164.8857 C.2     1  UNL1        0.2490
     23 O         140.8032  143.7100  164.6713 O.2     1  UNL1       -0.2700
     24 H         143.6060  141.6380  164.6631 H       1  UNL1        0.1498
     25 C         140.4693  141.0408  162.2502 C.3     1  UNL1        0.1023
     26 N         141.8852  141.0040  161.7565 N.3     1  UNL1       -0.2689
     27 C         142.8924  139.9309  162.0464 C.3     1  UNL1        0.0724
     28 C         144.1723  140.2975  161.3552 C.3     1  UNL1        0.0188
     29 C         143.9561  141.5972  160.6382 C.3     1  UNL1        0.0188
     30 C         142.5426  142.0338  160.8862 C.3     1  UNL1        0.0724
@<TRIPOS>BOND
     1    20    21    1
     2    21    22   am
     3    22    23    2
     4    22     1    1
     5     1     2   ar
     6     2    12    1
     7    12    13   ar
     8    13    14   ar
     9    14    15   ar
    10    15    16    1
    11    15    17   ar
    12    17    18   ar
    13     2     3   ar
    14     3     4   ar
    15     4     5   ar
    16     5     6   ar
    17     6     7   ar
    18     7     8    1
    19     7     9   ar
    20     9    25    1
    21    25    26    1
    22    26    27    1
    23    27    28    1
    24    28    29    1
    25    29    30    1
    26     9    10   ar
    27    10     1   ar
    28    18    12   ar
    29    10     4   ar
    30    30    26    1
    31    21    24    1
    32    16    19    1
    33     8    11    1
@<TRIPOS>MOLECULE
*****
 30 33 0 0 0
SMALL
GASTEIGER

@<TRIPOS>ATOM
      1 C         140.7826  141.4821  165.4660 C.ar    1  UNL1        0.0921
      2 C         140.8640  142.0547  166.8500 C.ar    1  UNL1        0.1671
      3 O         140.0678  143.3257  166.8733 O.2     1  UNL1       -0.4518
      4 C         139.4944  143.5386  165.5037 C.ar    1  UNL1        0.1455
      5 C         138.6270  144.6229  164.9362 C.ar    1  UNL1        0.0406
      6 C         138.2014  144.5676  163.4989 C.ar    1  UNL1        0.0395
      7 C         138.6432  143.4282  162.6291 C.ar    1  UNL1        0.1311
      8 O         138.2175  143.3729  161.1918 O.3     1  UNL1       -0.5058
      9 C         139.5105  142.3439  163.1967 C.ar    1  UNL1        0.0308
     10 C         139.9361  142.3992  164.6339 C.ar    1  UNL1        0.0422
     11 H         137.6757  144.0502  160.8373 H       1  UNL1        0.2922
     12 C         141.6105  141.4606  168.0075 C.ar    1  UNL1        0.1161
     13 C         142.7524  142.2099  168.6275 C.ar    1  UNL1        0.0254
     14 C         143.4989  141.6158  169.7850 C.ar    1  UNL1        0.0399
     15 C         143.1035  140.2724  170.3224 C.ar    1  UNL1        0.1528
     16 O         143.8501  139.6783  171.4799 O.3     1  UNL1       -0.5039
     17 C         141.9616  139.5231  169.7024 C.ar    1  UNL1        0.1354
     18 N         141.2151  140.1172  168.5449 N.ar    1  UNL1       -0.2376
     19 H         144.5634  140.1464  171.8673 H       1  UNL1        0.2923
     20 C         143.4418  138.9927  163.8905 C.3     1  UNL1        0.1109
     21 N         142.7910  140.2600  164.3600 N.am    1  UNL1       -0.2991
     22 C         141.4334  140.2148  164.9965 C.2     1  UNL1        0.2490
     23 O         140.7268  138.9023  165.1633 O.2     1  UNL1       -0.2700
     24 H         143.2548  141.1214  164.2504 H       1  UNL1        0.1498
     25 C         139.9522  141.2045  162.3269 C.3     1  UNL1        0.1023
     26 N         140.8437  141.4623  161.1484 N.3     1  UNL1       -0.2689
     27 C         142.1615  142.1782  161.1796 C.3     1  UNL1        0.0724
     28 C         142.7061  142.2078  159.7822 C.3     1  UNL1        0.0188
     29 C         141.7249  141.5102  158.8874 C.3     1  UNL1        0.0188
     30 C         140.5739  141.0494  159.7317 C.3     1  UNL1        0.0724
@<TRIPOS>BOND
     1    20    21    1
     2    21    22   am
     3    22    23    2
     4    22     1    1
     5     1     2   ar
     6     2    12    1
     7    12    13   ar
     8    13    14   ar
     9    14    15   ar
    10    15    16    1
    11    15    17   ar
    12    17    18   ar
    13     2     3   ar
    14     3     4   ar
    15     4     5   ar
    16     5     6   ar
    17     6     7   ar
    18     7     8    1
    19     7     9   ar
    20     9    25    1
    21    25    26    1
    22    26    27    1
    23    27    28    1
    24    28    29    1
    25    29    30    1
    26     9    10   ar
    27    10     1   ar
    28    18    12   ar
    29    10     4   ar
    30    30    26    1
    31    21    24    1
    32    16    19    1
    33     8    11    1
@<TRIPOS>MOLECULE
*****
 30 33 0 0 0
SMALL
GASTEIGER

@<TRIPOS>ATOM
      1 C         141.1932  141.8316  165.2245 C.ar    1  UNL1        0.0921
      2 C         141.8641  141.8681  166.5656 C.ar    1  UNL1        0.1671
      3 O         143.1216  142.6750  166.4329 O.2     1  UNL1       -0.4518
      4 C         143.2279  143.1372  165.0099 C.ar    1  UNL1        0.1455
      5 C         144.2559  143.9653  164.2977 C.ar    1  UNL1        0.0406
      6 C         144.0921  144.2722  162.8386 C.ar    1  UNL1        0.0395
      7 C         142.9003  143.7510  162.0917 C.ar    1  UNL1        0.1311
      8 O         142.7365  144.0579  160.6326 O.3     1  UNL1       -0.5058
      9 C         141.8722  142.9228  162.8039 C.ar    1  UNL1        0.0308
     10 C         142.0360  142.6159  164.2630 C.ar    1  UNL1        0.0422
     11 H         143.3787  144.5752  160.1877 H       1  UNL1        0.2922
     12 C         141.3651  141.2127  167.8192 C.ar    1  UNL1        0.1161
     13 C         142.1851  140.1488  168.4868 C.ar    1  UNL1        0.0254
     14 C         141.6861  139.4935  169.7404 C.ar    1  UNL1        0.0399
     15 C         140.3672  139.9020  170.3264 C.ar    1  UNL1        0.1528
     16 O         139.8682  139.2467  171.5801 O.3     1  UNL1       -0.5039
     17 C         139.5472  140.9659  169.6588 C.ar    1  UNL1        0.1354
     18 N         140.0462  141.6213  168.4052 N.ar    1  UNL1       -0.2376
     19 H         140.3804  138.5821  171.9971 H       1  UNL1        0.2923
     20 C         138.6341  139.0094  164.1125 C.3     1  UNL1        0.1109
     21 N         139.9218  139.7076  164.4354 N.am    1  UNL1       -0.2991
     22 C         139.9055  141.1333  164.9015 C.2     1  UNL1        0.2490
     23 O         138.6015  141.8606  165.0447 O.2     1  UNL1       -0.2700
     24 H         140.7777  139.2302  164.3415 H       1  UNL1        0.1498
     25 C         140.6804  142.4016  162.0571 C.3     1  UNL1        0.1023
     26 N         140.6990  141.0129  161.4903 N.3     1  UNL1       -0.2689
     27 C         139.5472  140.3146  160.8302 C.3     1  UNL1        0.0724
     28 C         140.0090  138.9488  160.4159 C.3     1  UNL1        0.0188
     29 C         141.4463  138.8031  160.8201 C.3     1  UNL1        0.0188
     30 C         141.8727  140.0788  161.4840 C.3     1  UNL1        0.0724
@<TRIPOS>BOND
     1    20    21    1
     2    21    22   am
     3    22    23    2
     4    22     1    1
     5     1     2   ar
     6     2    12    1
     7    12    13   ar
     8    13    14   ar
     9    14    15   ar
    10    15    16    1
    11    15    17   ar
    12    17    18   ar
    13     2     3   ar
    14     3     4   ar
    15     4     5   ar
    16     5     6   ar
    17     6     7   ar
    18     7     8    1
    19     7     9   ar
    20     9    25    1
    21    25    26    1
    22    26    27    1
    23    27    28    1
    24    28    29    1
    25    29    30    1
    26     9    10   ar
    27    10     1   ar
    28    18    12   ar
    29    10     4   ar
    30    30    26    1
    31    21    24    1
    32    16    19    1
    33     8    11    1
@<TRIPOS>MOLECULE
*****
 30 33 0 0 0
SMALL
GASTEIGER

@<TRIPOS>ATOM
      1 C         141.5127  140.7618  165.4753 C.ar    1  UNL1        0.0921
      2 C         141.1056  140.6533  166.9149 C.ar    1  UNL1        0.1671
      3 O         140.0612  139.5819  167.0217 O.2     1  UNL1       -0.4518
      4 C         139.8228  139.0283  165.6481 C.ar    1  UNL1        0.1455
      5 C         138.9049  137.9544  165.1441 C.ar    1  UNL1        0.0406
      6 C         138.8840  137.6098  163.6844 C.ar    1  UNL1        0.0395
      7 C         139.7811  138.3390  162.7287 C.ar    1  UNL1        0.1311
      8 O         139.7602  137.9943  161.2689 O.3     1  UNL1       -0.5058
      9 C         140.6991  139.4129  163.2327 C.ar    1  UNL1        0.0308
     10 C         140.7200  139.7575  164.6923 C.ar    1  UNL1        0.0422
     11 H         139.1867  137.3235  160.9541 H       1  UNL1        0.2922
     12 C         141.6476  141.4723  168.0486 C.ar    1  UNL1        0.1161
     13 C         140.7936  142.5272  168.6871 C.ar    1  UNL1        0.0254
     14 C         141.3357  143.3463  169.8209 C.ar    1  UNL1        0.0399
     15 C         142.7317  143.1103  170.3161 C.ar    1  UNL1        0.1528
     16 O         143.2738  143.9293  171.4499 O.3     1  UNL1       -0.5039
     17 C         143.5857  142.0553  169.6777 C.ar    1  UNL1        0.1354
     18 N         143.0437  141.2363  168.5439 N.ar    1  UNL1       -0.2376
     19 H         142.7403  144.5883  171.8487 H       1  UNL1        0.2923
     20 C         144.9982  142.2530  164.3014 C.3     1  UNL1        0.1109
     21 N         143.9775  141.3064  164.8600 N.am    1  UNL1       -0.2991
     22 C         142.5334  141.7084  164.9167 C.2     1  UNL1        0.2490
     23 O         142.1102  143.0571  164.4148 O.2     1  UNL1       -0.2700
     24 H         144.2553  140.4212  165.1894 H       1  UNL1        0.1498
     25 C         141.5962  140.1421  162.2769 C.3     1  UNL1        0.1023
     26 N         141.0057  141.0412  161.2315 N.3     1  UNL1       -0.2689
     27 C         140.1928  142.2757  161.4873 C.3     1  UNL1        0.0724
     28 C         139.8091  142.8612  160.1606 C.3     1  UNL1        0.0188
     29 C         140.3849  141.9885  159.0849 C.3     1  UNL1        0.0188
     30 C         141.1244  140.8638  159.7467 C.3     1  UNL1        0.0724
@<TRIPOS>BOND
     1    20    21    1
     2    21    22   am
     3    22    23    2
     4    22     1    1
     5     1     2   ar
     6     2    12    1
     7    12    13   ar
     8    13    14   ar
     9    14    15   ar
    10    15    16    1
    11    15    17   ar
    12    17    18   ar
    13     2     3   ar
    14     3     4   ar
    15     4     5   ar
    16     5     6   ar
    17     6     7   ar
    18     7     8    1
    19     7     9   ar
    20     9    25    1
    21    25    26    1
    22    26    27    1
    23    27    28    1
    24    28    29    1
    25    29    30    1
    26     9    10   ar
    27    10     1   ar
    28    18    12   ar
    29    10     4   ar
    30    30    26    1
    31    21    24    1
    32    16    19    1
    33     8    11    1
