@<TRIPOS>MOLECULE
*****
 37 40 0 0 0
SMALL
GASTEIGER

@<TRIPOS>ATOM
      1 C         139.3285  140.9196  166.2420 C.ar    1  UNL1        0.1377
      2 C         138.7626  139.7813  167.0383 C.ar    1  UNL1        0.1397
      3 N         139.0962  139.6458  168.4945 N.ar    1  UNL1       -0.2027
      4 C         139.9956  140.6487  169.1543 C.ar    1  UNL1        0.2367
      5 N         140.5615  141.7869  168.3580 N.ar    1  UNL1       -0.1828
      6 C         140.2279  141.9224  166.9018 C.ar    1  UNL1        0.2337
      7 C         137.2550  141.4981  162.9079 C.3     1  UNL1        0.1109
      8 N         137.5886  141.3627  164.3640 N.am    1  UNL1       -0.2990
      9 C         138.9949  141.0551  164.7859 C.2     1  UNL1        0.2532
     10 O         140.0675  140.8829  163.7515 O.2     1  UNL1       -0.2699
     11 H         136.8846  141.4757  165.0429 H       1  UNL1        0.1498
     12 N         137.8632  138.7785  166.3785 N.pl3   1  UNL1       -0.3178
     13 H         136.8908  138.9305  166.3539 H       1  UNL1        0.1482
     14 C         138.4453  137.5440  165.7562 C.3     1  UNL1        0.0881
     15 C         139.4129  137.6636  164.6163 C.3     1  UNL1        0.0196
     16 C         140.8883  137.6945  164.8850 C.3     1  UNL1        0.0017
     17 C         141.8559  137.8140  163.7450 C.3     1  UNL1        0.0001
     18 C         141.3481  137.9028  162.3364 C.3     1  UNL1        0.0000
     19 C         142.8420  137.9637  162.2151 C.3     1  UNL1        0.0000
     20 C         142.7166  138.0719  160.7243 C.3     1  UNL1        0.0000
     21 C         141.2227  138.0110  160.8455 C.3     1  UNL1        0.0000
     22 C         139.8727  137.8720  162.0677 C.3     1  UNL1        0.0001
     23 C         138.9051  137.7524  163.2077 C.3     1  UNL1        0.0017
     24 C         140.3292  140.5132  170.6104 C.1     1  UNL1        0.1401
     25 N         140.6628  140.3778  172.0666 N.1     1  UNL1       -0.1876
     26 O         140.7937  143.0607  166.1055 O.3     1  UNL1       -0.4637
     27 C         141.9946  142.8422  165.2337 C.3     1  UNL1        0.1701
     28 C         142.3864  143.8792  164.2231 C.3     1  UNL1        0.0580
     29 C         143.5873  143.6606  163.3512 C.3     1  UNL1        0.0454
     30 C         144.6333  143.9079  162.3050 C.3     1  UNL1        0.0159
     31 C         143.1415  145.0020  162.8492 C.3     1  UNL1        0.0159
     32 N         144.3964  142.4051  163.4899 N.3     1  UNL1       -0.3014
     33 C         144.0045  141.3682  164.5005 C.3     1  UNL1        0.0454
     34 C         144.0332  140.1028  165.3054 C.3     1  UNL1        0.0159
     35 C         145.2154  140.7101  163.9082 C.3     1  UNL1        0.0159
     36 C         142.8037  141.5868  165.3724 C.3     1  UNL1        0.0580
     37 H         145.3486  142.6920  163.7165 H       1  UNL1        0.1231
@<TRIPOS>BOND
     1     7     8    1
     2     8     9   am
     3     9    10    2
     4     9     1    1
     5     1     2   ar
     6     2    12    1
     7    12    14    1
     8    14    15    1
     9    15    16    1
    10    16    17    1
    11    17    18    1
    12    18    19    1
    13    19    20    1
    14    20    21    1
    15    18    22    1
    16    22    23    1
    17     2     3   ar
    18     3     4   ar
    19     4    24    1
    20    24    25    3
    21     4     5   ar
    22     5     6   ar
    23     6    26    1
    24    26    27    1
    25    27    28    1
    26    28    29    1
    27    29    30    1
    28    29    31    1
    29    29    32    1
    30    32    33    1
    31    33    34    1
    32    33    35    1
    33    33    36    1
    34     6     1   ar
    35    36    27    1
    36    23    15    1
    37    21    18    1
    38     8    11    1
    39    12    13    1
    40    32    37    1
@<TRIPOS>MOLECULE
*****
 37 40 0 0 0
SMALL
GASTEIGER

@<TRIPOS>ATOM
      1 C         141.4798  144.2369  161.1777 C.ar    1  UNL1        0.1377
      2 C         140.0667  144.6698  160.9214 C.ar    1  UNL1        0.1397
      3 N         139.4863  144.5579  159.5428 N.ar    1  UNL1       -0.2027
      4 C         140.3191  144.0130  158.4204 C.ar    1  UNL1        0.2367
      5 N         141.7321  143.5800  158.6767 N.ar    1  UNL1       -0.1828
      6 C         142.3126  143.6919  160.0554 C.ar    1  UNL1        0.2337
      7 C         143.8275  145.3447  164.1795 C.3     1  UNL1        0.1109
      8 N         143.2472  145.2328  162.8009 N.am    1  UNL1       -0.2990
      9 C         142.0602  144.3488  162.5563 C.2     1  UNL1        0.2532
     10 O         141.4536  143.5768  163.6904 O.2     1  UNL1       -0.2699
     11 H         143.6453  145.7395  162.0566 H       1  UNL1        0.1498
     12 N         139.2340  145.2148  162.0437 N.pl3   1  UNL1       -0.3178
     13 H         139.4824  146.0652  162.4730 H       1  UNL1        0.1482
     14 C         138.0228  144.4640  162.5119 C.3     1  UNL1        0.0881
     15 C         138.1654  143.0713  163.0504 C.3     1  UNL1        0.0196
     16 C         138.2568  142.8450  164.5304 C.3     1  UNL1        0.0017
     17 C         138.3994  141.4523  165.0688 C.3     1  UNL1        0.0001
     18 C         138.4506  140.2858  164.1273 C.3     1  UNL1        0.0000
     19 C         138.5679  139.6848  165.4967 C.3     1  UNL1        0.0000
     20 C         138.6523  138.3161  164.8888 C.3     1  UNL1        0.0000
     21 C         138.5351  138.9170  163.5194 C.3     1  UNL1        0.0000
     22 C         138.3592  140.5120  162.6473 C.3     1  UNL1        0.0001
     23 C         138.2166  141.9047  162.1088 C.3     1  UNL1        0.0017
     24 C         139.7387  143.9010  157.0418 C.1     1  UNL1        0.1401
     25 N         139.1584  143.7890  155.6631 N.1     1  UNL1       -0.1876
     26 O         143.7256  143.2589  160.3116 O.3     1  UNL1       -0.4637
     27 C         143.9967  141.9680  161.0258 C.3     1  UNL1        0.1701
     28 C         143.6463  140.6628  160.3747 C.3     1  UNL1        0.0580
     29 C         143.9173  139.3719  161.0889 C.3     1  UNL1        0.0454
     30 C         143.9802  137.8983  161.3619 C.3     1  UNL1        0.0159
     31 C         143.3177  138.8459  159.8186 C.3     1  UNL1        0.0159
     32 N         144.5388  139.3861  162.4541 N.3     1  UNL1       -0.3014
     33 C         144.8892  140.6913  163.1050 C.3     1  UNL1        0.0454
     34 C         145.3947  141.6656  164.1273 C.3     1  UNL1        0.0159
     35 C         145.3359  139.7388  164.1742 C.3     1  UNL1        0.0159
     36 C         144.6182  141.9822  162.3909 C.3     1  UNL1        0.0580
     37 H         145.4028  138.8478  162.3899 H       1  UNL1        0.1231
@<TRIPOS>BOND
     1     7     8    1
     2     8     9   am
     3     9    10    2
     4     9     1    1
     5     1     2   ar
     6     2    12    1
     7    12    14    1
     8    14    15    1
     9    15    16    1
    10    16    17    1
    11    17    18    1
    12    18    19    1
    13    19    20    1
    14    20    21    1
    15    18    22    1
    16    22    23    1
    17     2     3   ar
    18     3     4   ar
    19     4    24    1
    20    24    25    3
    21     4     5   ar
    22     5     6   ar
    23     6    26    1
    24    26    27    1
    25    27    28    1
    26    28    29    1
    27    29    30    1
    28    29    31    1
    29    29    32    1
    30    32    33    1
    31    33    34    1
    32    33    35    1
    33    33    36    1
    34     6     1   ar
    35    36    27    1
    36    23    15    1
    37    21    18    1
    38     8    11    1
    39    12    13    1
    40    32    37    1
@<TRIPOS>MOLECULE
*****
 37 40 0 0 0
SMALL
GASTEIGER

@<TRIPOS>ATOM
      1 C         141.4871  144.2212  161.1417 C.ar    1  UNL1        0.1377
      2 C         140.0741  144.6555  160.8868 C.ar    1  UNL1        0.1397
      3 N         139.4963  144.5557  159.5061 N.ar    1  UNL1       -0.2027
      4 C         140.3315  144.0218  158.3804 C.ar    1  UNL1        0.2367
      5 N         141.7444  143.5875  158.6353 N.ar    1  UNL1       -0.1828
      6 C         142.3223  143.6873  160.0160 C.ar    1  UNL1        0.2337
      7 C         143.8135  145.3216  164.1628 C.3     1  UNL1        0.1109
      8 N         143.2358  145.2219  162.7821 N.am    1  UNL1       -0.2990
      9 C         142.0648  144.3210  162.5223 C.2     1  UNL1        0.2532
     10 O         141.4717  143.5199  163.6433 O.2     1  UNL1       -0.2699
     11 H         143.6251  145.7476  162.0464 H       1  UNL1        0.1498
     12 N         139.2389  145.1895  162.0125 N.pl3   1  UNL1       -0.3178
     13 H         139.4876  146.0346  162.4521 H       1  UNL1        0.1482
     14 C         138.0248  144.4359  162.4686 C.3     1  UNL1        0.0881
     15 C         138.1666  143.0480  163.0196 C.3     1  UNL1        0.0196
     16 C         138.2430  142.8340  164.5023 C.3     1  UNL1        0.0017
     17 C         138.3848  141.4461  165.0534 C.3     1  UNL1        0.0001
     18 C         138.4502  140.2723  164.1218 C.3     1  UNL1        0.0000
     19 C         138.5550  139.6827  165.4972 C.3     1  UNL1        0.0000
     20 C         138.6508  138.3095  164.9012 C.3     1  UNL1        0.0000
     21 C         138.5460  138.8991  163.5258 C.3     1  UNL1        0.0000
     22 C         138.3738  140.4864  162.6392 C.3     1  UNL1        0.0001
     23 C         138.2320  141.8742  162.0881 C.3     1  UNL1        0.0017
     24 C         139.7538  143.9220  156.9997 C.1     1  UNL1        0.1401
     25 N         139.1759  143.8223  155.6190 N.1     1  UNL1       -0.1876
     26 O         143.7352  143.2530  160.2708 O.3     1  UNL1       -0.4637
     27 C         144.0057  141.9687  160.9971 C.3     1  UNL1        0.1701
     28 C         144.6313  141.9954  162.3602 C.3     1  UNL1        0.0580
     29 C         144.9018  140.7111  163.0865 C.3     1  UNL1        0.0454
     30 C         145.3496  139.7684  164.1639 C.3     1  UNL1        0.0159
     31 C         145.4124  141.6946  164.0974 C.3     1  UNL1        0.0159
     32 N         144.5467  139.4002  162.4497 N.3     1  UNL1       -0.3014
     33 C         143.9211  139.3736  161.0867 C.3     1  UNL1        0.0454
     34 C         143.3165  138.8362  159.8235 C.3     1  UNL1        0.0159
     35 C         143.9816  137.9027  161.3742 C.3     1  UNL1        0.0159
     36 C         143.6506  140.6579  160.3604 C.3     1  UNL1        0.0580
     37 H         143.8964  138.9326  163.0813 H       1  UNL1        0.1231
@<TRIPOS>BOND
     1     7     8    1
     2     8     9   am
     3     9    10    2
     4     9     1    1
     5     1     2   ar
     6     2    12    1
     7    12    14    1
     8    14    15    1
     9    15    16    1
    10    16    17    1
    11    17    18    1
    12    18    19    1
    13    19    20    1
    14    20    21    1
    15    18    22    1
    16    22    23    1
    17     2     3   ar
    18     3     4   ar
    19     4    24    1
    20    24    25    3
    21     4     5   ar
    22     5     6   ar
    23     6    26    1
    24    26    27    1
    25    27    28    1
    26    28    29    1
    27    29    30    1
    28    29    31    1
    29    29    32    1
    30    32    33    1
    31    33    34    1
    32    33    35    1
    33    33    36    1
    34     6     1   ar
    35    36    27    1
    36    23    15    1
    37    21    18    1
    38     8    11    1
    39    12    13    1
    40    32    37    1
@<TRIPOS>MOLECULE
*****
 37 40 0 0 0
SMALL
GASTEIGER

@<TRIPOS>ATOM
      1 C         139.8089  144.4551  163.4506 C.ar    1  UNL1        0.1377
      2 C         140.9069  145.3107  162.8917 C.ar    1  UNL1        0.1397
      3 N         141.0231  145.5082  161.4093 N.ar    1  UNL1       -0.2027
      4 C         140.0413  144.8500  160.4858 C.ar    1  UNL1        0.2367
      5 N         138.9433  143.9945  161.0447 N.ar    1  UNL1       -0.1828
      6 C         138.8271  143.7970  162.5271 C.ar    1  UNL1        0.2337
      7 C         140.3799  142.9910  167.0949 C.3     1  UNL1        0.1109
      8 N         140.4961  143.1885  165.6125 N.am    1  UNL1       -0.2990
      9 C         139.6927  144.2577  164.9330 C.2     1  UNL1        0.2532
     10 O         138.7733  145.1294  165.7360 O.2     1  UNL1       -0.2699
     11 H         141.0995  142.6164  165.0855 H       1  UNL1        0.1498
     12 N         141.8887  145.9689  163.8152 N.pl3   1  UNL1       -0.3178
     13 H         141.6023  146.7193  164.3845 H       1  UNL1        0.1482
     14 C         143.3070  145.4837  163.8714 C.3     1  UNL1        0.0881
     15 C         143.6005  144.0145  163.7995 C.3     1  UNL1        0.0196
     16 C         143.7686  143.3477  162.4665 C.3     1  UNL1        0.0017
     17 C         144.0621  141.8784  162.3945 C.3     1  UNL1        0.0001
     18 C         144.1874  141.0760  163.6556 C.3     1  UNL1        0.0000
     19 C         144.4125  140.0924  162.5456 C.3     1  UNL1        0.0000
     20 C         144.6025  138.9981  163.5539 C.3     1  UNL1        0.0000
     21 C         144.3775  139.9817  164.6639 C.3     1  UNL1        0.0000
     22 C         144.0193  141.7428  164.9886 C.3     1  UNL1        0.0001
     23 C         143.7258  143.2121  165.0606 C.3     1  UNL1        0.0017
     24 C         140.1575  145.0475  159.0034 C.1     1  UNL1        0.1401
     25 N         140.2736  145.2449  157.5210 N.1     1  UNL1       -0.1876
     26 O         137.7291  142.9414  163.0860 O.3     1  UNL1       -0.4637
     27 C         137.9324  141.4626  163.2344 C.3     1  UNL1        0.1701
     28 C         137.8489  140.5697  162.0320 C.3     1  UNL1        0.0580
     29 C         138.0521  139.0909  162.1804 C.3     1  UNL1        0.0454
     30 C         138.1700  137.6408  161.8157 C.3     1  UNL1        0.0159
     31 C         137.8064  139.1731  160.7030 C.3     1  UNL1        0.0159
     32 N         138.3388  138.5052  163.5313 N.3     1  UNL1       -0.3014
     33 C         138.4223  139.3981  164.7336 C.3     1  UNL1        0.0454
     34 C         138.5975  139.8296  166.1595 C.3     1  UNL1        0.0159
     35 C         138.6864  138.0692  165.3773 C.3     1  UNL1        0.0159
     36 C         138.2191  140.8768  164.5851 C.3     1  UNL1        0.0580
     37 H         139.2352  138.0238  163.4592 H       1  UNL1        0.1231
@<TRIPOS>BOND
     1     7     8    1
     2     8     9   am
     3     9    10    2
     4     9     1    1
     5     1     2   ar
     6     2    12    1
     7    12    14    1
     8    14    15    1
     9    15    16    1
    10    16    17    1
    11    17    18    1
    12    18    19    1
    13    19    20    1
    14    20    21    1
    15    18    22    1
    16    22    23    1
    17     2     3   ar
    18     3     4   ar
    19     4    24    1
    20    24    25    3
    21     4     5   ar
    22     5     6   ar
    23     6    26    1
    24    26    27    1
    25    27    28    1
    26    28    29    1
    27    29    30    1
    28    29    31    1
    29    29    32    1
    30    32    33    1
    31    33    34    1
    32    33    35    1
    33    33    36    1
    34     6     1   ar
    35    36    27    1
    36    23    15    1
    37    21    18    1
    38     8    11    1
    39    12    13    1
    40    32    37    1
@<TRIPOS>MOLECULE
*****
 37 40 0 0 0
SMALL
GASTEIGER

@<TRIPOS>ATOM
      1 C         139.3095  141.0809  165.9962 C.ar    1  UNL1        0.1377
      2 C         138.9325  139.8648  166.7895 C.ar    1  UNL1        0.1397
      3 N         139.2923  139.7762  168.2429 N.ar    1  UNL1       -0.2027
      4 C         140.0292  140.9036  168.9033 C.ar    1  UNL1        0.2367
      5 N         140.4062  142.1196  168.1101 N.ar    1  UNL1       -0.1828
      6 C         140.0463  142.2083  166.6565 C.ar    1  UNL1        0.2337
      7 C         137.2190  141.7112  162.6822 C.3     1  UNL1        0.1109
      8 N         137.5789  141.6226  164.1357 N.am    1  UNL1       -0.2990
      9 C         138.9497  141.1695  164.5428 C.2     1  UNL1        0.2532
     10 O         139.9606  140.8050  163.4963 O.2     1  UNL1       -0.2699
     11 H         136.9153  141.8618  164.8225 H       1  UNL1        0.1498
     12 N         138.1957  138.7374  166.1291 N.pl3   1  UNL1       -0.3178
     13 H         137.2177  138.7826  166.0251 H       1  UNL1        0.1482
     14 C         138.9488  137.5412  165.6274 C.3     1  UNL1        0.0881
     15 C         140.0515  137.7152  164.6255 C.3     1  UNL1        0.0196
     16 C         139.7853  137.4780  163.1685 C.3     1  UNL1        0.0017
     17 C         140.8880  137.6520  162.1666 C.3     1  UNL1        0.0001
     18 C         142.2568  138.0632  162.6217 C.3     1  UNL1        0.0000
     19 C         142.3690  137.9215  161.1326 C.3     1  UNL1        0.0000
     20 C         143.8163  138.3092  161.2047 C.3     1  UNL1        0.0000
     21 C         143.7041  138.4509  162.6938 C.3     1  UNL1        0.0000
     22 C         142.5230  138.3004  164.0787 C.3     1  UNL1        0.0001
     23 C         141.4203  138.1264  165.0806 C.3     1  UNL1        0.0017
     24 C         140.3890  140.8150  170.3567 C.1     1  UNL1        0.1401
     25 N         140.7488  140.7264  171.8103 N.1     1  UNL1       -0.1876
     26 O         140.4233  143.4243  165.8634 O.3     1  UNL1       -0.4637
     27 C         141.4016  143.3083  164.7322 C.3     1  UNL1        0.1701
     28 C         142.6483  142.4910  164.8996 C.3     1  UNL1        0.0580
     29 C         143.6265  142.3751  163.7684 C.3     1  UNL1        0.0454
     30 C         144.8449  141.9663  162.9949 C.3     1  UNL1        0.0159
     31 C         144.3180  141.5318  164.7983 C.3     1  UNL1        0.0159
     32 N         143.3581  143.0764  162.4698 N.3     1  UNL1       -0.3014
     33 C         142.1115  143.8936  162.3025 C.3     1  UNL1        0.0454
     34 C         141.0802  144.7772  161.6655 C.3     1  UNL1        0.0159
     35 C         142.7315  144.0846  160.9501 C.3     1  UNL1        0.0159
     36 C         141.1332  144.0096  163.4337 C.3     1  UNL1        0.0580
     37 H         143.3387  142.3582  161.7458 H       1  UNL1        0.1231
@<TRIPOS>BOND
     1     7     8    1
     2     8     9   am
     3     9    10    2
     4     9     1    1
     5     1     2   ar
     6     2    12    1
     7    12    14    1
     8    14    15    1
     9    15    16    1
    10    16    17    1
    11    17    18    1
    12    18    19    1
    13    19    20    1
    14    20    21    1
    15    18    22    1
    16    22    23    1
    17     2     3   ar
    18     3     4   ar
    19     4    24    1
    20    24    25    3
    21     4     5   ar
    22     5     6   ar
    23     6    26    1
    24    26    27    1
    25    27    28    1
    26    28    29    1
    27    29    30    1
    28    29    31    1
    29    29    32    1
    30    32    33    1
    31    33    34    1
    32    33    35    1
    33    33    36    1
    34     6     1   ar
    35    36    27    1
    36    23    15    1
    37    21    18    1
    38     8    11    1
    39    12    13    1
    40    32    37    1
@<TRIPOS>MOLECULE
*****
 37 40 0 0 0
SMALL
GASTEIGER

@<TRIPOS>ATOM
      1 C         143.4783  142.4185  163.0163 C.ar    1  UNL1        0.1377
      2 C         142.9585  142.4795  161.6105 C.ar    1  UNL1        0.1397
      3 N         141.9491  143.5212  161.2287 N.ar    1  UNL1       -0.2027
      4 C         141.4594  144.5020  162.2525 C.ar    1  UNL1        0.2367
      5 N         141.9792  144.4411  163.6582 N.ar    1  UNL1       -0.1828
      6 C         142.9887  143.3993  164.0402 C.ar    1  UNL1        0.2337
      7 C         145.1379  139.2719  164.7754 C.3     1  UNL1        0.1109
      8 N         144.1285  140.3136  164.3936 N.am    1  UNL1       -0.2990
      9 C         144.4877  141.3768  163.3982 C.2     1  UNL1        0.2532
     10 O         145.8564  141.3982  162.7847 O.2     1  UNL1       -0.2699
     11 H         143.2302  140.2996  164.7962 H       1  UNL1        0.1498
     12 N         143.4482  141.4987  160.5867 N.pl3   1  UNL1       -0.3178
     13 H         144.3041  141.6543  160.1257 H       1  UNL1        0.1482
     14 C         142.6338  140.2808  160.2650 C.3     1  UNL1        0.0881
     15 C         141.8075  139.6276  161.3330 C.3     1  UNL1        0.0196
     16 C         140.3751  140.0298  161.5242 C.3     1  UNL1        0.0017
     17 C         139.5488  139.3765  162.5921 C.3     1  UNL1        0.0001
     18 C         140.1549  138.3212  163.4689 C.3     1  UNL1        0.0000
     19 C         138.7383  138.4543  163.9442 C.3     1  UNL1        0.0000
     20 C         138.9863  137.3974  164.9793 C.3     1  UNL1        0.0000
     21 C         140.4028  137.2642  164.5041 C.3     1  UNL1        0.0000
     22 C         141.5872  137.9190  163.2778 C.3     1  UNL1        0.0001
     23 C         142.4135  138.5722  162.2098 C.3     1  UNL1        0.0017
     24 C         140.4500  145.5437  161.8707 C.1     1  UNL1        0.1401
     25 N         139.4405  146.5855  161.4888 N.1     1  UNL1       -0.1876
     26 O         143.5084  143.3384  165.4459 O.3     1  UNL1       -0.4637
     27 C         142.7549  142.5711  166.4915 C.3     1  UNL1        0.1701
     28 C         141.4477  141.9204  166.1479 C.3     1  UNL1        0.0580
     29 C         140.6942  141.1531  167.1936 C.3     1  UNL1        0.0454
     30 C         139.6187  140.3266  167.8340 C.3     1  UNL1        0.0159
     31 C         139.7671  140.9826  166.0268 C.3     1  UNL1        0.0159
     32 N         141.2478  141.0365  168.5829 N.3     1  UNL1       -0.3014
     33 C         142.5549  141.6872  168.9264 C.3     1  UNL1        0.0454
     34 C         143.7437  142.1241  169.7300 C.3     1  UNL1        0.0159
     35 C         142.2142  141.0716  170.2512 C.3     1  UNL1        0.0159
     36 C         143.3084  142.4545  167.8808 C.3     1  UNL1        0.0580
     37 H         141.3554  140.0404  168.7743 H       1  UNL1        0.1231
@<TRIPOS>BOND
     1     7     8    1
     2     8     9   am
     3     9    10    2
     4     9     1    1
     5     1     2   ar
     6     2    12    1
     7    12    14    1
     8    14    15    1
     9    15    16    1
    10    16    17    1
    11    17    18    1
    12    18    19    1
    13    19    20    1
    14    20    21    1
    15    18    22    1
    16    22    23    1
    17     2     3   ar
    18     3     4   ar
    19     4    24    1
    20    24    25    3
    21     4     5   ar
    22     5     6   ar
    23     6    26    1
    24    26    27    1
    25    27    28    1
    26    28    29    1
    27    29    30    1
    28    29    31    1
    29    29    32    1
    30    32    33    1
    31    33    34    1
    32    33    35    1
    33    33    36    1
    34     6     1   ar
    35    36    27    1
    36    23    15    1
    37    21    18    1
    38     8    11    1
    39    12    13    1
    40    32    37    1
@<TRIPOS>MOLECULE
*****
 37 40 0 0 0
SMALL
GASTEIGER

@<TRIPOS>ATOM
      1 C         138.2146  141.4350  160.9645 C.ar    1  UNL1        0.1377
      2 C         137.6338  140.1712  160.4027 C.ar    1  UNL1        0.1397
      3 N         137.6044  139.9541  158.9188 N.ar    1  UNL1       -0.2027
      4 C         138.1558  141.0008  157.9966 C.ar    1  UNL1        0.2367
      5 N         138.7366  142.2645  158.5583 N.ar    1  UNL1       -0.1828
      6 C         138.7660  142.4816  160.0423 C.ar    1  UNL1        0.2337
      7 C         139.5796  141.8377  164.6691 C.3     1  UNL1        0.1109
      8 N         139.5502  141.6206  163.1853 N.am    1  UNL1       -0.2990
      9 C         138.2440  141.6520  162.4484 C.2     1  UNL1        0.2532
     10 O         136.9673  141.9006  163.1954 O.2     1  UNL1       -0.2699
     11 H         140.3882  141.4575  162.6949 H       1  UNL1        0.1498
     12 N         137.0824  139.1245  161.3249 N.pl3   1  UNL1       -0.3178
     13 H         136.1756  139.2232  161.6954 H       1  UNL1        0.1482
     14 C         137.9125  137.9275  161.6826 C.3     1  UNL1        0.0881
     15 C         139.1694  138.0986  162.4831 C.3     1  UNL1        0.0196
     16 C         140.4755  138.3402  161.7862 C.3     1  UNL1        0.0017
     17 C         141.7324  138.5113  162.5867 C.3     1  UNL1        0.0001
     18 C         141.6833  138.4408  164.0842 C.3     1  UNL1        0.0000
     19 C         143.1254  138.6892  163.7543 C.3     1  UNL1        0.0000
     20 C         143.4609  138.6828  165.2163 C.3     1  UNL1        0.0000
     21 C         142.0188  138.4344  165.5462 C.3     1  UNL1        0.0000
     22 C         140.3773  138.1992  164.7812 C.3     1  UNL1        0.0001
     23 C         139.1203  138.0281  163.9807 C.3     1  UNL1        0.0017
     24 C         138.1264  140.7837  156.5128 C.1     1  UNL1        0.1401
     25 N         138.0970  140.5666  155.0288 N.1     1  UNL1       -0.1876
     26 O         139.3468  143.7454  160.6040 O.3     1  UNL1       -0.4637
     27 C         140.7833  143.7841  161.0343 C.3     1  UNL1        0.1701
     28 C         141.1828  144.5770  162.2435 C.3     1  UNL1        0.0580
     29 C         142.6193  144.6157  162.6738 C.3     1  UNL1        0.0454
     30 C         143.8432  144.9576  163.4707 C.3     1  UNL1        0.0159
     31 C         142.0075  145.4885  163.7293 C.3     1  UNL1        0.0159
     32 N         143.6561  143.8617  161.8950 N.3     1  UNL1       -0.3014
     33 C         143.2565  143.0689  160.6860 C.3     1  UNL1        0.0454
     34 C         143.3694  142.1827  159.4810 C.3     1  UNL1        0.0159
     35 C         144.7321  142.7999  160.6978 C.3     1  UNL1        0.0159
     36 C         141.8201  143.0301  160.2556 C.3     1  UNL1        0.0580
     37 H         144.0943  143.2081  162.5441 H       1  UNL1        0.1231
@<TRIPOS>BOND
     1     7     8    1
     2     8     9   am
     3     9    10    2
     4     9     1    1
     5     1     2   ar
     6     2    12    1
     7    12    14    1
     8    14    15    1
     9    15    16    1
    10    16    17    1
    11    17    18    1
    12    18    19    1
    13    19    20    1
    14    20    21    1
    15    18    22    1
    16    22    23    1
    17     2     3   ar
    18     3     4   ar
    19     4    24    1
    20    24    25    3
    21     4     5   ar
    22     5     6   ar
    23     6    26    1
    24    26    27    1
    25    27    28    1
    26    28    29    1
    27    29    30    1
    28    29    31    1
    29    29    32    1
    30    32    33    1
    31    33    34    1
    32    33    35    1
    33    33    36    1
    34     6     1   ar
    35    36    27    1
    36    23    15    1
    37    21    18    1
    38     8    11    1
    39    12    13    1
    40    32    37    1
@<TRIPOS>MOLECULE
*****
 37 40 0 0 0
SMALL
GASTEIGER

@<TRIPOS>ATOM
      1 C         140.3519  138.0821  163.3658 C.ar    1  UNL1        0.1377
      2 C         139.6240  138.0012  162.0567 C.ar    1  UNL1        0.1397
      3 N         140.3942  137.9896  160.7697 N.ar    1  UNL1       -0.2027
      4 C         141.8925  138.0588  160.7917 C.ar    1  UNL1        0.2367
      5 N         142.6204  138.1397  162.1007 N.ar    1  UNL1       -0.1828
      6 C         141.8501  138.1513  163.3878 C.ar    1  UNL1        0.2337
      7 C         138.7357  139.3607  166.7574 C.3     1  UNL1        0.1109
      8 N         139.5060  139.3491  165.4704 N.am    1  UNL1       -0.2990
      9 C         139.5816  138.0937  164.6528 C.2     1  UNL1        0.2532
     10 O         138.8869  136.8500  165.1224 O.2     1  UNL1       -0.2699
     11 H         139.9619  140.1654  165.1622 H       1  UNL1        0.1498
     12 N         138.1257  137.9319  162.0348 N.pl3   1  UNL1       -0.3178
     13 H         137.6650  137.1297  162.3714 H       1  UNL1        0.1482
     14 C         137.3294  139.0851  161.4999 C.3     1  UNL1        0.0881
     15 C         137.7411  140.4921  161.8171 C.3     1  UNL1        0.0196
     16 C         137.3328  141.1179  163.1178 C.3     1  UNL1        0.0017
     17 C         137.7445  142.5249  163.4350 C.3     1  UNL1        0.0001
     18 C         138.5644  143.3063  162.4516 C.3     1  UNL1        0.0000
     19 C         138.3541  144.2378  163.6085 C.3     1  UNL1        0.0000
     20 C         139.1466  145.2963  162.9003 C.3     1  UNL1        0.0000
     21 C         139.3569  144.3648  161.7434 C.3     1  UNL1        0.0000
     22 C         138.9727  142.6806  161.1510 C.3     1  UNL1        0.0001
     23 C         138.5610  141.2735  160.8337 C.3     1  UNL1        0.0017
     24 C         142.6628  138.0472  159.5046 C.1     1  UNL1        0.1401
     25 N         143.4331  138.0356  158.2175 N.1     1  UNL1       -0.1876
     26 O         142.5781  138.2322  164.6968 O.3     1  UNL1       -0.4637
     27 C         142.8909  139.5696  165.2996 C.3     1  UNL1        0.1701
     28 C         142.5363  139.8489  166.7301 C.3     1  UNL1        0.0580
     29 C         142.8491  141.1864  167.3330 C.3     1  UNL1        0.0454
     30 C         142.9413  142.2893  168.3453 C.3     1  UNL1        0.0159
     31 C         142.2137  140.5113  168.5122 C.3     1  UNL1        0.0159
     32 N         143.5166  142.2445  166.5053 N.3     1  UNL1       -0.3014
     33 C         143.8712  141.9651  165.0749 C.3     1  UNL1        0.0454
     34 C         144.3979  142.1757  163.6863 C.3     1  UNL1        0.0159
     35 C         144.3670  143.3757  165.1954 C.3     1  UNL1        0.0159
     36 C         143.5583  140.6277  164.4720 C.3     1  UNL1        0.0580
     37 H         144.3851  142.4869  166.9820 H       1  UNL1        0.1231
@<TRIPOS>BOND
     1     7     8    1
     2     8     9   am
     3     9    10    2
     4     9     1    1
     5     1     2   ar
     6     2    12    1
     7    12    14    1
     8    14    15    1
     9    15    16    1
    10    16    17    1
    11    17    18    1
    12    18    19    1
    13    19    20    1
    14    20    21    1
    15    18    22    1
    16    22    23    1
    17     2     3   ar
    18     3     4   ar
    19     4    24    1
    20    24    25    3
    21     4     5   ar
    22     5     6   ar
    23     6    26    1
    24    26    27    1
    25    27    28    1
    26    28    29    1
    27    29    30    1
    28    29    31    1
    29    29    32    1
    30    32    33    1
    31    33    34    1
    32    33    35    1
    33    33    36    1
    34     6     1   ar
    35    36    27    1
    36    23    15    1
    37    21    18    1
    38     8    11    1
    39    12    13    1
    40    32    37    1
@<TRIPOS>MOLECULE
*****
 37 40 0 0 0
SMALL
GASTEIGER

@<TRIPOS>ATOM
      1 C         138.5075  142.7395  163.2083 C.ar    1  UNL1        0.1377
      2 C         138.6189  143.5557  161.9546 C.ar    1  UNL1        0.1397
      3 N         138.5192  142.8893  160.6145 N.ar    1  UNL1       -0.2027
      4 C         138.3081  141.4068  160.5280 C.ar    1  UNL1        0.2367
      5 N         138.1967  140.5906  161.7815 N.ar    1  UNL1       -0.1828
      6 C         138.2964  141.2570  163.1217 C.ar    1  UNL1        0.2337
      7 C         139.8581  143.7596  166.7979 C.3     1  UNL1        0.1109
      8 N         139.7584  143.0932  165.4578 N.am    1  UNL1       -0.2990
      9 C         138.6072  143.4059  164.5484 C.2     1  UNL1        0.2532
     10 O         137.5556  144.3850  164.9792 O.2     1  UNL1       -0.2699
     11 H         140.4486  142.4506  165.1750 H       1  UNL1        0.1498
     12 N         138.8300  145.0382  162.0412 N.pl3   1  UNL1       -0.3178
     13 H         138.0623  145.6371  162.1866 H       1  UNL1        0.1482
     14 C         140.2109  145.6083  161.9062 C.3     1  UNL1        0.0881
     15 C         141.3975  144.8177  162.3719 C.3     1  UNL1        0.0196
     16 C         142.0758  143.8616  161.4361 C.3     1  UNL1        0.0017
     17 C         143.2624  143.0711  161.9017 C.3     1  UNL1        0.0001
     18 C         143.7708  143.2366  163.3032 C.3     1  UNL1        0.0000
     19 C         144.6793  142.2196  162.6782 C.3     1  UNL1        0.0000
     20 C         145.4491  142.1185  163.9617 C.3     1  UNL1        0.0000
     21 C         144.5406  143.1354  164.5867 C.3     1  UNL1        0.0000
     22 C         143.0925  144.1927  164.2390 C.3     1  UNL1        0.0001
     23 C         141.9059  144.9832  163.7733 C.3     1  UNL1        0.0017
     24 C         138.2085  140.7404  159.1879 C.1     1  UNL1        0.1401
     25 N         138.1088  140.0739  157.8477 N.1     1  UNL1       -0.1876
     26 O         138.1849  140.4408  164.3753 O.3     1  UNL1       -0.4637
     27 C         139.4091  140.1488  165.1914 C.3     1  UNL1        0.1701
     28 C         140.7132  139.8575  164.5097 C.3     1  UNL1        0.0580
     29 C         141.9373  139.5655  165.3259 C.3     1  UNL1        0.0454
     30 C         143.3609  139.2338  165.6624 C.3     1  UNL1        0.0159
     31 C         142.5115  139.4510  163.9449 C.3     1  UNL1        0.0159
     32 N         141.8575  139.5649  166.8238 N.3     1  UNL1       -0.3014
     33 C         140.5535  139.8562  167.5055 C.3     1  UNL1        0.0454
     34 C         139.5541  140.0722  168.6030 C.3     1  UNL1        0.0159
     35 C         141.4305  139.6392  168.7028 C.3     1  UNL1        0.0159
     36 C         139.3293  140.1482  166.6893 C.3     1  UNL1        0.0580
     37 H         142.5248  140.2618  167.1545 H       1  UNL1        0.1231
@<TRIPOS>BOND
     1     7     8    1
     2     8     9   am
     3     9    10    2
     4     9     1    1
     5     1     2   ar
     6     2    12    1
     7    12    14    1
     8    14    15    1
     9    15    16    1
    10    16    17    1
    11    17    18    1
    12    18    19    1
    13    19    20    1
    14    20    21    1
    15    18    22    1
    16    22    23    1
    17     2     3   ar
    18     3     4   ar
    19     4    24    1
    20    24    25    3
    21     4     5   ar
    22     5     6   ar
    23     6    26    1
    24    26    27    1
    25    27    28    1
    26    28    29    1
    27    29    30    1
    28    29    31    1
    29    29    32    1
    30    32    33    1
    31    33    34    1
    32    33    35    1
    33    33    36    1
    34     6     1   ar
    35    36    27    1
    36    23    15    1
    37    21    18    1
    38     8    11    1
    39    12    13    1
    40    32    37    1
