@<TRIPOS>MOLECULE
*****
 29 31 0 0 0
SMALL
GASTEIGER

@<TRIPOS>ATOM
      1 C         138.8161  139.6097  166.0280 C.ar    1  UNL1        0.0193
      2 C         137.8002  138.8391  166.8180 C.ar    1  UNL1        0.1002
      3 N         137.7887  138.9294  168.3152 N.ar    1  UNL1       -0.2296
      4 C         138.7930  139.7903  169.0225 C.ar    1  UNL1        0.1254
      5 N         138.7815  139.8806  170.5197 N.pl3   1  UNL1       -0.3426
      6 C         139.8089  140.5608  168.2324 C.ar    1  UNL1        0.0327
      7 C         139.8205  140.4705  166.7352 C.ar    1  UNL1        0.0044
      8 H         138.1147  139.3748  171.0382 H       1  UNL1        0.1437
      9 H         139.4407  140.4456  170.9839 H       1  UNL1        0.1437
     10 C         138.8508  139.3388  161.5363 C.ar    1  UNL1        0.1219
     11 C         139.4532  138.2385  162.3587 C.ar    1  UNL1        0.0199
     12 C         139.4417  138.3288  163.8559 C.ar    1  UNL1        0.0014
     13 C         138.8277  139.5194  164.5308 C.ar    1  UNL1        0.0016
     14 C         138.2253  140.6197  163.7084 C.ar    1  UNL1        0.0014
     15 C         138.2368  140.5294  162.2111 C.ar    1  UNL1        0.0199
     16 S         138.8623  139.2485  160.0390 S.O2    1  UNL1        0.0603
     17 O         137.6028  140.0610  159.9803 O.2     1  UNL1       -0.1530
     18 O         140.1219  138.4360  160.0978 O.2     1  UNL1       -0.1530
     19 C         139.9450  138.3717  157.8461 C.3     1  UNL1        0.1102
     20 N         138.8739  139.1582  158.5418 N.3     1  UNL1       -0.1779
     21 H         137.9814  138.7496  158.2646 H       1  UNL1        0.1488
     22 C         140.8133  141.4217  168.9397 C.ar    1  UNL1        0.0221
     23 C         142.2245  140.9426  169.1095 C.ar    1  UNL1        0.0064
     24 C         143.2289  141.8034  169.8166 C.ar    1  UNL1        0.0577
     25 C         142.8221  143.1435  170.3540 C.ar    1  UNL1        0.2250
     26 N         141.4109  143.6227  170.1842 N.ar    1  UNL1       -0.2101
     27 C         140.4065  142.7618  169.4770 C.ar    1  UNL1        0.1021
     28 O         143.8265  144.0043  171.0612 O.3     1  UNL1       -0.4561
     29 C         145.2907  143.8281  170.7870 C.3     1  UNL1        0.2542
@<TRIPOS>BOND
     1    19    20    1
     2    20    16    1
     3    16    17    2
     4    16    18    2
     5    16    10    1
     6    10    11   ar
     7    11    12   ar
     8    12    13   ar
     9    13     1    1
    10     1     2   ar
    11     2     3   ar
    12     3     4   ar
    13     4     5    1
    14     4     6   ar
    15     6    22    1
    16    22    23   ar
    17    23    24   ar
    18    24    25   ar
    19    25    28    1
    20    28    29    1
    21    25    26   ar
    22    26    27   ar
    23     6     7   ar
    24    13    14   ar
    25    14    15   ar
    26    15    10   ar
    27     7     1   ar
    28    27    22   ar
    29    20    21    1
    30     5     8    1
    31     5     9    1
@<TRIPOS>MOLECULE
*****
 29 31 0 0 0
SMALL
GASTEIGER

@<TRIPOS>ATOM
      1 C         139.7725  142.5131  165.6289 C.ar    1  UNL1        0.0193
      2 C         139.3049  143.9117  165.9032 C.ar    1  UNL1        0.1002
      3 N         138.5707  144.6784  164.8434 N.ar    1  UNL1       -0.2296
      4 C         138.3041  144.0465  163.5094 C.ar    1  UNL1        0.1254
      5 N         137.5698  144.8132  162.4497 N.pl3   1  UNL1       -0.3426
      6 C         138.7716  142.6479  163.2352 C.ar    1  UNL1        0.0327
      7 C         139.5058  141.8812  164.2950 C.ar    1  UNL1        0.0044
      8 H         137.2630  145.7312  162.6297 H       1  UNL1        0.1437
      9 H         137.3949  144.3985  161.5741 H       1  UNL1        0.1437
     10 C         141.9751  140.2129  168.8082 C.ar    1  UNL1        0.1219
     11 C         140.5376  139.8999  168.5161 C.ar    1  UNL1        0.0199
     12 C         139.8033  140.6666  167.4564 C.ar    1  UNL1        0.0014
     13 C         140.5067  141.7464  166.6887 C.ar    1  UNL1        0.0016
     14 C         141.9443  142.0594  166.9808 C.ar    1  UNL1        0.0014
     15 C         142.6785  141.2927  168.0406 C.ar    1  UNL1        0.0199
     16 S         142.7093  139.4462  169.8680 S.O2    1  UNL1        0.0603
     17 O         143.1561  138.4510  168.8384 O.2     1  UNL1       -0.1530
     18 O         142.2625  140.4414  170.8975 O.2     1  UNL1       -0.1530
     19 C         143.7236  137.2182  170.7381 C.3     1  UNL1        0.1102
     20 N         143.4435  138.6795  170.9277 N.3     1  UNL1       -0.1779
     21 H         144.3459  139.1386  171.0515 H       1  UNL1        0.1488
     22 C         138.5050  142.0159  161.9011 C.ar    1  UNL1        0.0221
     23 C         139.0350  142.6523  160.6505 C.ar    1  UNL1        0.0064
     24 C         138.7684  142.0204  159.3165 C.ar    1  UNL1        0.0577
     25 C         137.9718  140.7521  159.2331 C.ar    1  UNL1        0.2250
     26 N         137.4418  140.1157  160.4838 N.ar    1  UNL1       -0.2101
     27 C         137.7084  140.7477  161.8178 C.ar    1  UNL1        0.1021
     28 O         137.7052  140.1202  157.8991 O.3     1  UNL1       -0.4561
     29 C         137.1638  140.9483  156.7717 C.3     1  UNL1        0.2542
@<TRIPOS>BOND
     1    19    20    1
     2    20    16    1
     3    16    17    2
     4    16    18    2
     5    16    10    1
     6    10    11   ar
     7    11    12   ar
     8    12    13   ar
     9    13     1    1
    10     1     2   ar
    11     2     3   ar
    12     3     4   ar
    13     4     5    1
    14     4     6   ar
    15     6    22    1
    16    22    23   ar
    17    23    24   ar
    18    24    25   ar
    19    25    28    1
    20    28    29    1
    21    25    26   ar
    22    26    27   ar
    23     6     7   ar
    24    13    14   ar
    25    14    15   ar
    26    15    10   ar
    27     7     1   ar
    28    27    22   ar
    29    20    21    1
    30     5     8    1
    31     5     9    1
@<TRIPOS>MOLECULE
*****
 29 31 0 0 0
SMALL
GASTEIGER

@<TRIPOS>ATOM
      1 C         142.2119  142.3500  165.4916 C.ar    1  UNL1        0.0193
      2 C         143.6846  142.5540  165.6900 C.ar    1  UNL1        0.1002
      3 N         144.5174  143.1318  164.5843 N.ar    1  UNL1       -0.2296
      4 C         143.8775  143.5056  163.2802 C.ar    1  UNL1        0.1254
      5 N         144.7103  144.0835  162.1745 N.pl3   1  UNL1       -0.3426
      6 C         142.4048  143.3016  163.0818 C.ar    1  UNL1        0.0327
      7 C         141.5720  142.7238  164.1875 C.ar    1  UNL1        0.0044
      8 H         145.6769  144.2174  162.3048 H       1  UNL1        0.1437
      9 H         144.2903  144.3288  161.3186 H       1  UNL1        0.1437
     10 C         139.7134  140.6164  168.8086 C.ar    1  UNL1        0.1219
     11 C         139.8602  139.8739  167.5136 C.ar    1  UNL1        0.0199
     12 C         140.6930  140.4517  166.4080 C.ar    1  UNL1        0.0014
     13 C         141.3791  141.7721  166.5973 C.ar    1  UNL1        0.0016
     14 C         141.2323  142.5147  167.8922 C.ar    1  UNL1        0.0014
     15 C         140.3995  141.9368  168.9979 C.ar    1  UNL1        0.0199
     16 S         138.8806  140.0386  169.9143 S.O2    1  UNL1        0.0603
     17 O         138.0449  139.3100  168.9040 O.2     1  UNL1       -0.1530
     18 O         139.7164  140.7672  170.9246 O.2     1  UNL1       -0.1530
     19 C         136.6804  138.9195  170.7247 C.3     1  UNL1        0.1102
     20 N         138.0478  139.4608  171.0200 N.3     1  UNL1       -0.1779
     21 H         138.5864  138.6951  171.4250 H       1  UNL1        0.1488
     22 C         141.7648  143.6754  161.7776 C.ar    1  UNL1        0.0221
     23 C         141.0506  144.9874  161.6415 C.ar    1  UNL1        0.0064
     24 C         140.4106  145.3612  160.3375 C.ar    1  UNL1        0.0577
     25 C         140.4848  144.4230  159.1694 C.ar    1  UNL1        0.2250
     26 N         141.1990  143.1110  159.3055 N.ar    1  UNL1       -0.2101
     27 C         141.8390  142.7372  160.6096 C.ar    1  UNL1        0.1021
     28 O         139.8448  144.7969  157.8653 O.3     1  UNL1       -0.4561
     29 C         140.1317  146.1319  157.2446 C.3     1  UNL1        0.2542
@<TRIPOS>BOND
     1    19    20    1
     2    20    16    1
     3    16    17    2
     4    16    18    2
     5    16    10    1
     6    10    11   ar
     7    11    12   ar
     8    12    13   ar
     9    13     1    1
    10     1     2   ar
    11     2     3   ar
    12     3     4   ar
    13     4     5    1
    14     4     6   ar
    15     6    22    1
    16    22    23   ar
    17    23    24   ar
    18    24    25   ar
    19    25    28    1
    20    28    29    1
    21    25    26   ar
    22    26    27   ar
    23     6     7   ar
    24    13    14   ar
    25    14    15   ar
    26    15    10   ar
    27     7     1   ar
    28    27    22   ar
    29    20    21    1
    30     5     8    1
    31     5     9    1
@<TRIPOS>MOLECULE
*****
 29 31 0 0 0
SMALL
GASTEIGER

@<TRIPOS>ATOM
      1 C         140.4324  139.9320  165.8827 C.ar    1  UNL1        0.0193
      2 C         139.1098  139.2609  166.1067 C.ar    1  UNL1        0.1002
      3 N         138.4879  138.4450  165.0124 N.ar    1  UNL1       -0.2296
      4 C         139.1886  138.3002  163.6941 C.ar    1  UNL1        0.1254
      5 N         138.5667  137.4842  162.5998 N.pl3   1  UNL1       -0.3426
      6 C         140.5112  138.9713  163.4701 C.ar    1  UNL1        0.0327
      7 C         141.1331  139.7872  164.5645 C.ar    1  UNL1        0.0044
      8 H         137.6986  137.0438  162.7468 H       1  UNL1        0.1437
      9 H         139.0267  137.3892  161.7345 H       1  UNL1        0.1437
     10 C         142.2981  142.3797  169.1657 C.ar    1  UNL1        0.1219
     11 C         141.0121  142.8261  168.5357 C.ar    1  UNL1        0.0199
     12 C         140.3902  142.0102  167.4414 C.ar    1  UNL1        0.0014
     13 C         141.0543  140.7479  166.9771 C.ar    1  UNL1        0.0016
     14 C         142.3403  140.3015  167.6071 C.ar    1  UNL1        0.0014
     15 C         142.9622  141.1175  168.7014 C.ar    1  UNL1        0.0199
     16 S         142.9200  143.1956  170.2600 S.O2    1  UNL1        0.0603
     17 O         144.2825  142.7522  169.8163 O.2     1  UNL1       -0.1530
     18 O         141.5574  143.6391  170.7037 O.2     1  UNL1       -0.1530
     19 C         144.9838  144.4145  171.2625 C.3     1  UNL1        0.1102
     20 N         143.5419  144.0116  171.3543 N.3     1  UNL1       -0.1779
     21 H         142.9994  144.8725  171.4243 H       1  UNL1        0.1488
     22 C         141.2121  138.8265  162.1518 C.ar    1  UNL1        0.0221
     23 C         140.8467  139.7226  161.0058 C.ar    1  UNL1        0.0064
     24 C         141.5474  139.5779  159.6875 C.ar    1  UNL1        0.0577
     25 C         142.6136  138.5369  159.5151 C.ar    1  UNL1        0.2250
     26 N         142.9791  137.6408  160.6612 N.ar    1  UNL1       -0.2101
     27 C         142.2782  137.7855  161.9795 C.ar    1  UNL1        0.1021
     28 O         143.3144  138.3922  158.1968 O.3     1  UNL1       -0.4561
     29 C         142.6785  137.6012  157.0923 C.3     1  UNL1        0.2542
@<TRIPOS>BOND
     1    19    20    1
     2    20    16    1
     3    16    17    2
     4    16    18    2
     5    16    10    1
     6    10    11   ar
     7    11    12   ar
     8    12    13   ar
     9    13     1    1
    10     1     2   ar
    11     2     3   ar
    12     3     4   ar
    13     4     5    1
    14     4     6   ar
    15     6    22    1
    16    22    23   ar
    17    23    24   ar
    18    24    25   ar
    19    25    28    1
    20    28    29    1
    21    25    26   ar
    22    26    27   ar
    23     6     7   ar
    24    13    14   ar
    25    14    15   ar
    26    15    10   ar
    27     7     1   ar
    28    27    22   ar
    29    20    21    1
    30     5     8    1
    31     5     9    1
@<TRIPOS>MOLECULE
*****
 29 31 0 0 0
SMALL
GASTEIGER

@<TRIPOS>ATOM
      1 C         139.1043  139.8537  163.0905 C.ar    1  UNL1        0.0193
      2 C         137.7614  139.6184  162.4652 C.ar    1  UNL1        0.1002
      3 N         137.6392  139.4935  160.9754 N.ar    1  UNL1       -0.2296
      4 C         138.8599  139.6041  160.1109 C.ar    1  UNL1        0.1254
      5 N         138.7377  139.4792  158.6211 N.pl3   1  UNL1       -0.3426
      6 C         140.2029  139.8394  160.7361 C.ar    1  UNL1        0.0327
      7 C         140.3251  139.9642  162.2259 C.ar    1  UNL1        0.0044
      8 H         137.8563  139.3248  158.2107 H       1  UNL1        0.1437
      9 H         139.5390  139.5518  158.0537 H       1  UNL1        0.1437
     10 C         139.4710  140.2282  167.5598 C.ar    1  UNL1        0.1219
     11 C         140.2170  141.1724  166.6644 C.ar    1  UNL1        0.0199
     12 C         140.0948  141.0476  165.1746 C.ar    1  UNL1        0.0014
     13 C         139.2265  139.9785  164.5803 C.ar    1  UNL1        0.0016
     14 C         138.4805  139.0343  165.4757 C.ar    1  UNL1        0.0014
     15 C         138.6027  139.1591  166.9655 C.ar    1  UNL1        0.0199
     16 S         139.5932  140.3530  169.0496 S.O2    1  UNL1        0.0603
     17 O         138.3778  139.4909  169.2216 O.2     1  UNL1       -0.1530
     18 O         140.8085  141.2151  168.8777 O.2     1  UNL1       -0.1530
     19 C         141.0009  140.9524  171.1494 C.3     1  UNL1        0.1102
     20 N         139.7154  140.4778  170.5394 N.3     1  UNL1       -0.1779
     21 H         138.9889  141.1272  170.8411 H       1  UNL1        0.1488
     22 C         141.4238  139.9499  159.8716 C.ar    1  UNL1        0.0221
     23 C         141.8996  141.2970  159.4145 C.ar    1  UNL1        0.0064
     24 C         143.1204  141.4076  158.5500 C.ar    1  UNL1        0.0577
     25 C         143.8654  140.1710  158.1425 C.ar    1  UNL1        0.2250
     26 N         143.3895  138.8239  158.5996 N.ar    1  UNL1       -0.2101
     27 C         142.1687  138.7134  159.4642 C.ar    1  UNL1        0.1021
     28 O         145.0862  140.2816  157.2781 O.3     1  UNL1       -0.4561
     29 C         145.5438  141.6259  156.7949 C.3     1  UNL1        0.2542
@<TRIPOS>BOND
     1    19    20    1
     2    20    16    1
     3    16    17    2
     4    16    18    2
     5    16    10    1
     6    10    11   ar
     7    11    12   ar
     8    12    13   ar
     9    13     1    1
    10     1     2   ar
    11     2     3   ar
    12     3     4   ar
    13     4     5    1
    14     4     6   ar
    15     6    22    1
    16    22    23   ar
    17    23    24   ar
    18    24    25   ar
    19    25    28    1
    20    28    29    1
    21    25    26   ar
    22    26    27   ar
    23     6     7   ar
    24    13    14   ar
    25    14    15   ar
    26    15    10   ar
    27     7     1   ar
    28    27    22   ar
    29    20    21    1
    30     5     8    1
    31     5     9    1
@<TRIPOS>MOLECULE
*****
 29 31 0 0 0
SMALL
GASTEIGER

@<TRIPOS>ATOM
      1 C         139.2385  139.5425  163.3533 C.ar    1  UNL1        0.0193
      2 C         138.7449  138.2388  162.7995 C.ar    1  UNL1        0.1002
      3 N         138.6224  138.0524  161.3162 N.ar    1  UNL1       -0.2296
      4 C         138.9934  139.1696  160.3867 C.ar    1  UNL1        0.1254
      5 N         138.8708  138.9832  158.9034 N.pl3   1  UNL1       -0.3426
      6 C         139.4869  140.4733  160.9405 C.ar    1  UNL1        0.0327
      7 C         139.6095  140.6598  162.4238 C.ar    1  UNL1        0.0044
      8 H         138.5469  138.1275  158.5399 H       1  UNL1        0.1437
      9 H         139.1143  139.7165  158.2933 H       1  UNL1        0.1437
     10 C         139.6061  140.1018  167.8033 C.ar    1  UNL1        0.1219
     11 C         140.5675  140.7885  166.8791 C.ar    1  UNL1        0.0199
     12 C         140.4450  140.6020  165.3958 C.ar    1  UNL1        0.0014
     13 C         139.3610  139.7289  164.8367 C.ar    1  UNL1        0.0016
     14 C         138.3996  139.0422  165.7608 C.ar    1  UNL1        0.0014
     15 C         138.5222  139.2287  167.2442 C.ar    1  UNL1        0.0199
     16 S         139.7287  140.2882  169.2866 S.O2    1  UNL1        0.0603
     17 O         141.0888  140.8920  169.0983 O.2     1  UNL1       -0.1530
     18 O         138.3685  139.6844  169.4749 O.2     1  UNL1       -0.1530
     19 C         140.8307  141.4671  171.3227 C.3     1  UNL1        0.1102
     20 N         139.8512  140.4747  170.7699 N.3     1  UNL1       -0.1779
     21 H         138.9296  140.7502  171.1092 H       1  UNL1        0.1488
     22 C         139.8580  141.5907  160.0110 C.ar    1  UNL1        0.0221
     23 C         141.2468  141.6696  159.4499 C.ar    1  UNL1        0.0064
     24 C         141.6179  142.7868  158.5204 C.ar    1  UNL1        0.0577
     25 C         140.6000  143.8253  158.1520 C.ar    1  UNL1        0.2250
     26 N         139.2112  143.7464  158.7131 N.ar    1  UNL1       -0.2101
     27 C         138.8401  142.6291  159.6426 C.ar    1  UNL1        0.1021
     28 O         140.9711  144.9426  157.2225 O.3     1  UNL1       -0.4561
     29 C         142.0972  145.8687  157.5749 C.3     1  UNL1        0.2542
@<TRIPOS>BOND
     1    19    20    1
     2    20    16    1
     3    16    17    2
     4    16    18    2
     5    16    10    1
     6    10    11   ar
     7    11    12   ar
     8    12    13   ar
     9    13     1    1
    10     1     2   ar
    11     2     3   ar
    12     3     4   ar
    13     4     5    1
    14     4     6   ar
    15     6    22    1
    16    22    23   ar
    17    23    24   ar
    18    24    25   ar
    19    25    28    1
    20    28    29    1
    21    25    26   ar
    22    26    27   ar
    23     6     7   ar
    24    13    14   ar
    25    14    15   ar
    26    15    10   ar
    27     7     1   ar
    28    27    22   ar
    29    20    21    1
    30     5     8    1
    31     5     9    1
@<TRIPOS>MOLECULE
*****
 29 31 0 0 0
SMALL
GASTEIGER

@<TRIPOS>ATOM
      1 C         140.4364  144.4576  157.5197 C.ar    1  UNL1        0.0193
      2 C         139.4288  143.4814  156.9890 C.ar    1  UNL1        0.1002
      3 N         138.3984  143.9321  155.9965 N.ar    1  UNL1       -0.2296
      4 C         138.3756  145.3591  155.5347 C.ar    1  UNL1        0.1254
      5 N         137.3451  145.8098  154.5422 N.pl3   1  UNL1       -0.3426
      6 C         139.3832  146.3353  156.0654 C.ar    1  UNL1        0.0327
      7 C         140.4136  145.8845  157.0579 C.ar    1  UNL1        0.0044
      8 H         136.6838  145.1690  154.1939 H       1  UNL1        0.1437
      9 H         137.3302  146.7463  154.2391 H       1  UNL1        0.1437
     10 C         143.5277  143.1055  160.4972 C.ar    1  UNL1        0.1219
     11 C         142.2770  143.7848  160.9707 C.ar    1  UNL1        0.0199
     12 C         141.2466  144.2355  159.9782 C.ar    1  UNL1        0.0014
     13 C         141.4668  144.0069  158.5122 C.ar    1  UNL1        0.0016
     14 C         142.7175  143.3276  158.0387 C.ar    1  UNL1        0.0014
     15 C         143.7480  142.8769  159.0312 C.ar    1  UNL1        0.0199
     16 S         144.5581  142.6548  161.4897 S.O2    1  UNL1        0.0603
     17 O         144.6096  144.0391  162.0650 O.2     1  UNL1       -0.1530
     18 O         144.5067  141.2704  160.9145 O.2     1  UNL1       -0.1530
     19 C         145.2753  141.0879  163.4341 C.3     1  UNL1        0.1102
     20 N         145.5886  142.2041  162.4822 N.3     1  UNL1       -0.1779
     21 H         146.4062  141.9132  161.9463 H       1  UNL1        0.1488
     22 C         139.3604  147.7623  155.6036 C.ar    1  UNL1        0.0221
     23 C         138.5804  148.7871  156.3726 C.ar    1  UNL1        0.0064
     24 C         138.5576  150.2140  155.9108 C.ar    1  UNL1        0.0577
     25 C         139.3148  150.6162  154.6800 C.ar    1  UNL1        0.2250
     26 N         140.0948  149.5915  153.9110 N.ar    1  UNL1       -0.2101
     27 C         140.1176  148.1644  154.3728 C.ar    1  UNL1        0.1021
     28 O         139.2920  152.0432  154.2182 O.3     1  UNL1       -0.4561
     29 C         138.4167  153.0428  154.9144 C.3     1  UNL1        0.2542
@<TRIPOS>BOND
     1    19    20    1
     2    20    16    1
     3    16    17    2
     4    16    18    2
     5    16    10    1
     6    10    11   ar
     7    11    12   ar
     8    12    13   ar
     9    13     1    1
    10     1     2   ar
    11     2     3   ar
    12     3     4   ar
    13     4     5    1
    14     4     6   ar
    15     6    22    1
    16    22    23   ar
    17    23    24   ar
    18    24    25   ar
    19    25    28    1
    20    28    29    1
    21    25    26   ar
    22    26    27   ar
    23     6     7   ar
    24    13    14   ar
    25    14    15   ar
    26    15    10   ar
    27     7     1   ar
    28    27    22   ar
    29    20    21    1
    30     5     8    1
    31     5     9    1
@<TRIPOS>MOLECULE
*****
 29 31 0 0 0
SMALL
GASTEIGER

@<TRIPOS>ATOM
      1 C         139.0104  141.6631  163.4744 C.ar    1  UNL1        0.0193
      2 C         138.1695  142.8631  163.1538 C.ar    1  UNL1        0.1002
      3 N         137.9192  143.2433  161.7246 N.ar    1  UNL1       -0.2296
      4 C         138.5098  142.4236  160.6159 C.ar    1  UNL1        0.1254
      5 N         138.2595  142.8038  159.1867 N.pl3   1  UNL1       -0.3426
      6 C         139.3507  141.2236  160.9365 C.ar    1  UNL1        0.0327
      7 C         139.6010  140.8434  162.3658 C.ar    1  UNL1        0.0044
      8 H         137.7075  143.5914  158.9762 H       1  UNL1        0.1437
      9 H         138.6471  142.2657  158.4590 H       1  UNL1        0.1437
     10 C         139.7614  140.5225  167.7622 C.ar    1  UNL1        0.1219
     11 C         138.9965  139.5972  166.8629 C.ar    1  UNL1        0.0199
     12 C         138.7462  139.9774  165.4336 C.ar    1  UNL1        0.0014
     13 C         139.2607  141.2829  164.9037 C.ar    1  UNL1        0.0016
     14 C         140.0256  142.2082  165.8030 C.ar    1  UNL1        0.0014
     15 C         140.2759  141.8280  167.2323 C.ar    1  UNL1        0.0199
     16 S         140.0117  140.1423  169.1914 S.O2    1  UNL1        0.0603
     17 O         141.4354  140.5967  169.0630 O.2     1  UNL1       -0.1530
     18 O         138.5880  139.6878  169.3199 O.2     1  UNL1       -0.1530
     19 C         141.0862  140.6543  171.5008 C.3     1  UNL1        0.1102
     20 N         140.2620  139.7620  170.6207 N.3     1  UNL1       -0.1779
     21 H         139.3487  139.6718  171.0657 H       1  UNL1        0.1488
     22 C         139.9413  140.4037  159.8279 C.ar    1  UNL1        0.0221
     23 C         141.2855  140.7603  159.2656 C.ar    1  UNL1        0.0064
     24 C         141.8761  139.9405  158.1570 C.ar    1  UNL1        0.0577
     25 C         141.1227  138.7641  157.6106 C.ar    1  UNL1        0.2250
     26 N         139.7785  138.4076  158.1729 N.ar    1  UNL1       -0.2101
     27 C         139.1879  139.2274  159.2816 C.ar    1  UNL1        0.1021
     28 O         141.7133  137.9444  156.5020 O.3     1  UNL1       -0.4561
     29 C         142.2866  136.5895  156.7945 C.3     1  UNL1        0.2542
@<TRIPOS>BOND
     1    19    20    1
     2    20    16    1
     3    16    17    2
     4    16    18    2
     5    16    10    1
     6    10    11   ar
     7    11    12   ar
     8    12    13   ar
     9    13     1    1
    10     1     2   ar
    11     2     3   ar
    12     3     4   ar
    13     4     5    1
    14     4     6   ar
    15     6    22    1
    16    22    23   ar
    17    23    24   ar
    18    24    25   ar
    19    25    28    1
    20    28    29    1
    21    25    26   ar
    22    26    27   ar
    23     6     7   ar
    24    13    14   ar
    25    14    15   ar
    26    15    10   ar
    27     7     1   ar
    28    27    22   ar
    29    20    21    1
    30     5     8    1
    31     5     9    1
@<TRIPOS>MOLECULE
*****
 29 31 0 0 0
SMALL
GASTEIGER

@<TRIPOS>ATOM
      1 C         139.0015  140.4141  163.5304 C.ar    1  UNL1        0.0193
      2 C         138.0925  139.4219  162.8678 C.ar    1  UNL1        0.1002
      3 N         137.9014  139.4564  161.3804 N.ar    1  UNL1       -0.2296
      4 C         138.6195  140.4831  160.5557 C.ar    1  UNL1        0.1254
      5 N         138.4285  140.5176  159.0683 N.pl3   1  UNL1       -0.3426
      6 C         139.5285  141.4753  161.2183 C.ar    1  UNL1        0.0327
      7 C         139.7195  141.4408  162.7057 C.ar    1  UNL1        0.0044
      8 H         137.8318  139.8663  158.6334 H       1  UNL1        0.1437
      9 H         138.8997  141.1914  158.5269 H       1  UNL1        0.1437
     10 C         139.5746  140.3107  167.9926 C.ar    1  UNL1        0.1219
     11 C         138.6136  139.3633  167.3377 C.ar    1  UNL1        0.0199
     12 C         138.4226  139.3978  165.8503 C.ar    1  UNL1        0.0014
     13 C         139.1925  140.3797  165.0178 C.ar    1  UNL1        0.0016
     14 C         140.1535  141.3270  165.6727 C.ar    1  UNL1        0.0014
     15 C         140.3445  141.2926  167.1601 C.ar    1  UNL1        0.0199
     16 S         139.7656  140.2762  169.4800 S.O2    1  UNL1        0.0603
     17 O         141.1624  140.7967  169.3127 O.2     1  UNL1       -0.1530
     18 O         138.3688  139.7557  169.6473 O.2     1  UNL1       -0.1530
     19 C         141.0642  141.0311  171.5998 C.3     1  UNL1        0.1102
     20 N         139.9566  140.2418  170.9674 N.3     1  UNL1       -0.1779
     21 H         139.0856  140.5708  171.3838 H       1  UNL1        0.1488
     22 C         140.2466  142.5020  160.3935 C.ar    1  UNL1        0.0221
     23 C         141.5704  142.1714  159.7704 C.ar    1  UNL1        0.0064
     24 C         142.2885  143.1980  158.9457 C.ar    1  UNL1        0.0577
     25 C         141.6828  144.5555  158.7440 C.ar    1  UNL1        0.2250
     26 N         140.3590  144.8861  159.3670 N.ar    1  UNL1       -0.2101
     27 C         139.6409  143.8594  160.1918 C.ar    1  UNL1        0.1021
     28 O         142.4009  145.5821  157.9192 O.3     1  UNL1       -0.4561
     29 C         142.0472  145.7634  156.4728 C.3     1  UNL1        0.2542
@<TRIPOS>BOND
     1    19    20    1
     2    20    16    1
     3    16    17    2
     4    16    18    2
     5    16    10    1
     6    10    11   ar
     7    11    12   ar
     8    12    13   ar
     9    13     1    1
    10     1     2   ar
    11     2     3   ar
    12     3     4   ar
    13     4     5    1
    14     4     6   ar
    15     6    22    1
    16    22    23   ar
    17    23    24   ar
    18    24    25   ar
    19    25    28    1
    20    28    29    1
    21    25    26   ar
    22    26    27   ar
    23     6     7   ar
    24    13    14   ar
    25    14    15   ar
    26    15    10   ar
    27     7     1   ar
    28    27    22   ar
    29    20    21    1
    30     5     8    1
    31     5     9    1
