@<TRIPOS>MOLECULE
*****
 39 43 0 0 0
SMALL
GASTEIGER

@<TRIPOS>ATOM
      1 C         144.1706  142.2533  158.5547 C.3     1  UNL1        0.0310
      2 C         144.1257  141.9006  160.0120 C.ar    1  UNL1       -0.0218
      3 C         145.0924  142.5352  160.9674 C.ar    1  UNL1       -0.0030
      4 C         145.0474  142.1824  162.4247 C.ar    1  UNL1        0.0144
      5 C         144.0357  141.1952  162.9265 C.ar    1  UNL1        0.0506
      6 C         143.0690  140.5607  161.9711 C.ar    1  UNL1        0.0144
      7 C         143.1140  140.9134  160.5138 C.ar    1  UNL1       -0.0026
      8 C         142.1472  140.2788  159.5584 C.ar    1  UNL1        0.0028
      9 C         140.7756  140.8599  159.3828 C.ar    1  UNL1        0.0015
     10 C         139.8089  140.2254  158.4274 C.ar    1  UNL1        0.0178
     11 C         140.2138  139.0098  157.6476 C.ar    1  UNL1        0.0847
     12 C         141.5854  138.4286  157.8232 C.ar    1  UNL1        0.1515
     13 C         142.5522  139.0631  158.7786 C.ar    1  UNL1        0.0382
     14 O         142.1871  137.2311  157.1493 O.3     1  UNL1       -0.4807
     15 C         141.5657  136.3189  156.1335 C.3     1  UNL1        0.1466
     16 C         141.0405  135.3493  155.1167 C.3     1  UNL1        0.0726
     17 C         141.9106  134.2289  154.6294 C.3     1  UNL1        0.1458
     18 O         143.3060  134.0782  155.1588 O.3     1  UNL1       -0.3535
     19 C         143.8312  135.0479  156.1756 C.3     1  UNL1        0.1458
     20 C         142.9610  136.1682  156.6630 C.3     1  UNL1        0.0726
     21 C         140.1891  136.3790  155.5406 C.3     1  UNL1        0.1254
     22 C         139.0940  137.3661  155.8171 C.2     1  UNL1        0.2297
     23 O         137.8194  137.1545  155.0553 O.2     1  UNL1       -0.2746
     24 N         139.1050  138.5369  156.7548 N.am    1  UNL1       -0.2814
     25 H         138.2747  139.0648  156.7888 H       1  UNL1        0.1549
     26 N         143.9907  140.8425  164.3837 N.am    1  UNL1       -0.2791
     27 C         143.0377  141.5533  165.2984 C.2     1  UNL1        0.2690
     28 O         142.1297  142.6168  164.7557 O.2     1  UNL1       -0.2681
     29 H         144.5867  140.1445  164.7398 H       1  UNL1        0.1552
     30 C         142.9927  141.2006  166.7556 C.ar    1  UNL1        0.1562
     31 C         143.2065  142.2640  167.7916 C.ar    1  UNL1        0.0310
     32 C         143.1615  141.9113  169.2488 C.ar    1  UNL1        0.0940
     33 C         142.9027  140.4952  169.6701 C.ar    1  UNL1        0.1260
     34 N         142.6888  139.4317  168.6342 N.ar    1  UNL1       -0.1463
     35 N         142.7338  139.7844  167.1769 N.ar    1  UNL1       -0.1433
     36 C         143.3754  142.9748  170.2849 C.3     1  UNL1        0.4201
     37 F         143.5893  144.0383  171.3209 F       1  UNL1       -0.1658
     38 F         144.8546  142.7325  170.2282 F       1  UNL1       -0.1658
     39 F         141.8962  143.2171  170.3415 F       1  UNL1       -0.1658
@<TRIPOS>BOND
     1     1     2    1
     2     2     3   ar
     3     3     4   ar
     4     4     5   ar
     5     5    26    1
     6    26    27   am
     7    27    28    2
     8    27    30    1
     9    30    31   ar
    10    31    32   ar
    11    32    36    1
    12    36    37    1
    13    36    38    1
    14    36    39    1
    15    32    33   ar
    16    33    34   ar
    17    34    35   ar
    18     5     6   ar
    19     6     7   ar
    20     7     8    1
    21     8     9   ar
    22     9    10   ar
    23    10    11   ar
    24    11    12   ar
    25    12    13   ar
    26    12    14    1
    27    14    15    1
    28    15    16    1
    29    16    17    1
    30    17    18    1
    31    18    19    1
    32    19    20    1
    33    15    21    1
    34    21    22    1
    35    22    23    2
    36    22    24   am
    37     7     2   ar
    38    13     8   ar
    39    20    15    1
    40    35    30   ar
    41    24    11    1
    42    26    29    1
    43    24    25    1
@<TRIPOS>MOLECULE
*****
 39 43 0 0 0
SMALL
GASTEIGER

@<TRIPOS>ATOM
      1 C         139.3372  145.1392  162.9876 C.3     1  UNL1        0.0310
      2 C         140.0790  144.5738  161.8128 C.ar    1  UNL1       -0.0218
      3 C         140.6471  145.4923  160.7718 C.ar    1  UNL1       -0.0030
      4 C         141.3889  144.9268  159.5971 C.ar    1  UNL1        0.0144
      5 C         141.5626  143.4430  159.4634 C.ar    1  UNL1        0.0506
      6 C         140.9945  142.5245  160.5043 C.ar    1  UNL1        0.0144
      7 C         140.2527  143.0899  161.6791 C.ar    1  UNL1       -0.0026
      8 C         139.6846  142.1714  162.7201 C.ar    1  UNL1        0.0028
      9 C         138.5814  141.2210  162.3602 C.ar    1  UNL1        0.0015
     10 C         138.0133  140.3025  163.4011 C.ar    1  UNL1        0.0178
     11 C         138.5484  140.3344  164.8020 C.ar    1  UNL1        0.0847
     12 C         139.6517  141.2847  165.1619 C.ar    1  UNL1        0.1515
     13 C         140.2198  142.2033  164.1210 C.ar    1  UNL1        0.0382
     14 O         140.3248  141.4771  166.4886 O.3     1  UNL1       -0.4807
     15 C         140.0608  140.7665  167.7830 C.3     1  UNL1        0.1466
     16 C         139.8775  140.1187  169.1234 C.3     1  UNL1        0.0726
     17 C         140.7283  140.5426  170.2838 C.3     1  UNL1        0.1458
     18 O         141.7622  141.6143  170.1038 O.3     1  UNL1       -0.3535
     19 C         141.9454  142.2621  168.7634 C.3     1  UNL1        0.1458
     20 C         141.0947  141.8382  167.6030 C.3     1  UNL1        0.0726
     21 C         139.0585  139.6882  168.0704 C.3     1  UNL1        0.1254
     22 C         138.0727  139.0540  167.1344 C.2     1  UNL1        0.2297
     23 O         137.1983  137.9918  167.7320 O.2     1  UNL1       -0.2746
     24 N         137.8457  139.3416  165.6798 N.am    1  UNL1       -0.2814
     25 H         137.1425  138.8082  165.2436 H       1  UNL1        0.1549
     26 N         142.3044  142.8776  158.2886 N.am    1  UNL1       -0.2791
     27 C         143.7708  142.5817  158.3993 C.2     1  UNL1        0.2690
     28 O         144.4953  142.8512  159.6847 O.2     1  UNL1       -0.2681
     29 H         141.8288  142.7007  157.4449 H       1  UNL1        0.1552
     30 C         144.5126  142.0163  157.2246 C.ar    1  UNL1        0.1562
     31 C         145.9870  142.2533  157.0839 C.ar    1  UNL1        0.0310
     32 C         146.7288  141.6879  155.9091 C.ar    1  UNL1        0.0940
     33 C         145.9962  140.8856  154.8751 C.ar    1  UNL1        0.1260
     34 N         144.5218  140.6485  155.0157 N.ar    1  UNL1       -0.1463
     35 N         143.7799  141.2139  156.1904 N.ar    1  UNL1       -0.1433
     36 C         148.2034  141.9249  155.7685 C.3     1  UNL1        0.4201
     37 F         149.6778  142.1620  155.6279 F       1  UNL1       -0.1658
     38 F         148.2409  142.5101  157.1492 F       1  UNL1       -0.1658
     39 F         148.1657  141.3398  154.3879 F       1  UNL1       -0.1658
@<TRIPOS>BOND
     1     1     2    1
     2     2     3   ar
     3     3     4   ar
     4     4     5   ar
     5     5    26    1
     6    26    27   am
     7    27    28    2
     8    27    30    1
     9    30    31   ar
    10    31    32   ar
    11    32    36    1
    12    36    37    1
    13    36    38    1
    14    36    39    1
    15    32    33   ar
    16    33    34   ar
    17    34    35   ar
    18     5     6   ar
    19     6     7   ar
    20     7     8    1
    21     8     9   ar
    22     9    10   ar
    23    10    11   ar
    24    11    12   ar
    25    12    13   ar
    26    12    14    1
    27    14    15    1
    28    15    16    1
    29    16    17    1
    30    17    18    1
    31    18    19    1
    32    19    20    1
    33    15    21    1
    34    21    22    1
    35    22    23    2
    36    22    24   am
    37     7     2   ar
    38    13     8   ar
    39    20    15    1
    40    35    30   ar
    41    24    11    1
    42    26    29    1
    43    24    25    1
@<TRIPOS>MOLECULE
*****
 39 43 0 0 0
SMALL
GASTEIGER

@<TRIPOS>ATOM
      1 C         137.7625  142.7533  162.5306 C.3     1  UNL1        0.0310
      2 C         138.5044  141.7917  161.6503 C.ar    1  UNL1       -0.0218
      3 C         138.5431  142.0097  160.1667 C.ar    1  UNL1       -0.0030
      4 C         139.2850  141.0480  159.2865 C.ar    1  UNL1        0.0144
      5 C         139.9880  139.8684  159.8898 C.ar    1  UNL1        0.0506
      6 C         139.9493  139.6503  161.3733 C.ar    1  UNL1        0.0144
      7 C         139.2075  140.6120  162.2536 C.ar    1  UNL1       -0.0026
      8 C         139.1687  140.3939  163.7372 C.ar    1  UNL1        0.0028
      9 C         138.0421  139.6176  164.3520 C.ar    1  UNL1        0.0015
     10 C         138.0034  139.3996  165.8355 C.ar    1  UNL1        0.0178
     11 C         139.0912  139.9578  166.7043 C.ar    1  UNL1        0.0847
     12 C         140.2178  140.7342  166.0895 C.ar    1  UNL1        0.1515
     13 C         140.2566  140.9523  164.6059 C.ar    1  UNL1        0.0382
     14 O         141.3939  141.3719  166.7680 O.3     1  UNL1       -0.4807
     15 C         141.7338  141.3907  168.2289 C.3     1  UNL1        0.1466
     16 C         142.1648  141.4692  169.6634 C.3     1  UNL1        0.0726
     17 C         143.4233  142.1987  170.0295 C.3     1  UNL1        0.1458
     18 O         144.2508  142.8496  168.9611 O.3     1  UNL1       -0.3535
     19 C         143.8197  142.7710  167.5265 C.3     1  UNL1        0.1458
     20 C         142.5612  142.0416  167.1604 C.3     1  UNL1        0.0726
     21 C         140.9816  140.7764  169.3721 C.3     1  UNL1        0.1254
     22 C         139.7036  139.9917  169.3367 C.2     1  UNL1        0.2297
     23 O         139.2005  139.5072  170.6641 O.2     1  UNL1       -0.2746
     24 N         138.8624  139.6274  168.1494 N.am    1  UNL1       -0.2814
     25 H         138.0530  139.1019  168.3444 H       1  UNL1        0.1549
     26 N         140.7299  138.9067  159.0095 N.am    1  UNL1       -0.2791
     27 C         141.9801  139.3451  158.3061 C.2     1  UNL1        0.2690
     28 O         142.4885  140.7452  158.4830 O.2     1  UNL1       -0.2681
     29 H         140.3962  137.9878  158.8934 H       1  UNL1        0.1552
     30 C         142.7220  138.3835  157.4259 C.ar    1  UNL1        0.1562
     31 C         142.3225  136.9381  157.3902 C.ar    1  UNL1        0.0310
     32 C         143.0644  135.9765  156.5099 C.ar    1  UNL1        0.0940
     33 C         144.2056  136.4602  155.6653 C.ar    1  UNL1        0.1260
     34 N         144.6052  137.9055  155.7009 N.ar    1  UNL1       -0.1463
     35 N         143.8634  138.8672  156.5812 N.ar    1  UNL1       -0.1433
     36 C         142.6649  134.5310  156.4743 C.3     1  UNL1        0.4201
     37 F         142.2655  133.0856  156.4387 F       1  UNL1       -0.1658
     38 F         143.9979  134.1486  157.0460 F       1  UNL1       -0.1658
     39 F         141.3319  134.9135  155.9026 F       1  UNL1       -0.1658
@<TRIPOS>BOND
     1     1     2    1
     2     2     3   ar
     3     3     4   ar
     4     4     5   ar
     5     5    26    1
     6    26    27   am
     7    27    28    2
     8    27    30    1
     9    30    31   ar
    10    31    32   ar
    11    32    36    1
    12    36    37    1
    13    36    38    1
    14    36    39    1
    15    32    33   ar
    16    33    34   ar
    17    34    35   ar
    18     5     6   ar
    19     6     7   ar
    20     7     8    1
    21     8     9   ar
    22     9    10   ar
    23    10    11   ar
    24    11    12   ar
    25    12    13   ar
    26    12    14    1
    27    14    15    1
    28    15    16    1
    29    16    17    1
    30    17    18    1
    31    18    19    1
    32    19    20    1
    33    15    21    1
    34    21    22    1
    35    22    23    2
    36    22    24   am
    37     7     2   ar
    38    13     8   ar
    39    20    15    1
    40    35    30   ar
    41    24    11    1
    42    26    29    1
    43    24    25    1
@<TRIPOS>MOLECULE
*****
 39 43 0 0 0
SMALL
GASTEIGER

@<TRIPOS>ATOM
      1 C         140.7524  144.7284  161.8415 C.3     1  UNL1        0.0310
      2 C         141.3498  143.6800  160.9506 C.ar    1  UNL1       -0.0218
      3 C         140.9950  143.6429  159.4935 C.ar    1  UNL1       -0.0030
      4 C         141.5925  142.5944  158.6026 C.ar    1  UNL1        0.0144
      5 C         142.5447  141.5831  159.1687 C.ar    1  UNL1        0.0506
      6 C         142.8994  141.6201  160.6256 C.ar    1  UNL1        0.0144
      7 C         142.3019  142.6685  161.5165 C.ar    1  UNL1       -0.0026
      8 C         142.6567  142.7055  162.9736 C.ar    1  UNL1        0.0028
      9 C         143.8889  143.4307  163.4273 C.ar    1  UNL1        0.0015
     10 C         144.2436  143.4677  164.8842 C.ar    1  UNL1        0.0178
     11 C         143.3663  142.7796  165.8875 C.ar    1  UNL1        0.0847
     12 C         142.1341  142.0544  165.4338 C.ar    1  UNL1        0.1515
     13 C         141.7793  142.0174  163.9768 C.ar    1  UNL1        0.0382
     14 O         141.1298  141.3083  166.2614 O.3     1  UNL1       -0.4807
     15 C         141.1098  141.1032  167.7473 C.3     1  UNL1        0.1466
     16 C         140.9951  140.8395  169.2194 C.3     1  UNL1        0.0726
     17 C         139.8436  140.0382  169.7503 C.3     1  UNL1        0.1458
     18 O         138.8068  139.5005  168.8090 O.3     1  UNL1       -0.3535
     19 C         138.9216  139.7642  167.3369 C.3     1  UNL1        0.1458
     20 C         140.0731  140.5655  166.8060 C.3     1  UNL1        0.0726
     21 C         142.0890  141.5934  168.7723 C.3     1  UNL1        0.1254
     22 C         143.3302  142.4099  168.5648 C.2     1  UNL1        0.2297
     23 O         144.1054  142.7425  169.8051 O.2     1  UNL1       -0.2746
     24 N         143.8986  142.9378  167.2809 N.am    1  UNL1       -0.2814
     25 H         144.7311  143.4567  167.3637 H       1  UNL1        0.1549
     26 N         143.1421  140.5346  158.2777 N.am    1  UNL1       -0.2791
     27 C         142.4224  139.2367  158.0597 C.2     1  UNL1        0.2690
     28 O         141.1053  138.9872  158.7328 O.2     1  UNL1       -0.2681
     29 H         144.0065  140.6984  157.8360 H       1  UNL1        0.1552
     30 C         143.0198  138.1882  157.1688 C.ar    1  UNL1        0.1562
     31 C         142.4361  136.8068  157.1402 C.ar    1  UNL1        0.0310
     32 C         143.0335  135.7584  156.2493 C.ar    1  UNL1        0.0940
     33 C         144.2147  136.0913  155.3869 C.ar    1  UNL1        0.1260
     34 N         144.7985  137.4727  155.4153 N.ar    1  UNL1       -0.1463
     35 N         144.2011  138.5212  156.3063 N.ar    1  UNL1       -0.1433
     36 C         142.4497  134.3769  156.2208 C.3     1  UNL1        0.4201
     37 F         141.8658  132.9955  156.1922 F       1  UNL1       -0.1658
     38 F         141.1398  134.9401  155.7548 F       1  UNL1       -0.1658
     39 F         143.7595  133.8138  156.6867 F       1  UNL1       -0.1658
@<TRIPOS>BOND
     1     1     2    1
     2     2     3   ar
     3     3     4   ar
     4     4     5   ar
     5     5    26    1
     6    26    27   am
     7    27    28    2
     8    27    30    1
     9    30    31   ar
    10    31    32   ar
    11    32    36    1
    12    36    37    1
    13    36    38    1
    14    36    39    1
    15    32    33   ar
    16    33    34   ar
    17    34    35   ar
    18     5     6   ar
    19     6     7   ar
    20     7     8    1
    21     8     9   ar
    22     9    10   ar
    23    10    11   ar
    24    11    12   ar
    25    12    13   ar
    26    12    14    1
    27    14    15    1
    28    15    16    1
    29    16    17    1
    30    17    18    1
    31    18    19    1
    32    19    20    1
    33    15    21    1
    34    21    22    1
    35    22    23    2
    36    22    24   am
    37     7     2   ar
    38    13     8   ar
    39    20    15    1
    40    35    30   ar
    41    24    11    1
    42    26    29    1
    43    24    25    1
@<TRIPOS>MOLECULE
*****
 39 43 0 0 0
SMALL
GASTEIGER

@<TRIPOS>ATOM
      1 C         144.1508  141.8489  159.1638 C.3     1  UNL1        0.0310
      2 C         143.9315  141.4188  160.5839 C.ar    1  UNL1       -0.0218
      3 C         144.8132  141.9523  161.6739 C.ar    1  UNL1       -0.0030
      4 C         144.5938  141.5221  163.0941 C.ar    1  UNL1        0.0144
      5 C         143.4928  140.5584  163.4242 C.ar    1  UNL1        0.0506
      6 C         142.6112  140.0249  162.3343 C.ar    1  UNL1        0.0144
      7 C         142.8305  140.4551  160.9142 C.ar    1  UNL1       -0.0026
      8 C         141.9488  139.9215  159.8242 C.ar    1  UNL1        0.0028
      9 C         140.6391  140.5886  159.5249 C.ar    1  UNL1        0.0015
     10 C         139.7574  140.0551  158.4350 C.ar    1  UNL1        0.0178
     11 C         140.1854  138.8545  157.6443 C.ar    1  UNL1        0.0847
     12 C         141.4951  138.1874  157.9436 C.ar    1  UNL1        0.1515
     13 C         142.3768  138.7209  159.0335 C.ar    1  UNL1        0.0382
     14 O         142.1070  136.9886  157.2813 O.3     1  UNL1       -0.4807
     15 C         141.5602  136.1609  156.1561 C.3     1  UNL1        0.1466
     16 C         141.1060  135.2703  155.0378 C.3     1  UNL1        0.0726
     17 C         141.9666  134.1245  154.5948 C.3     1  UNL1        0.1458
     18 O         143.2815  133.8693  155.2701 O.3     1  UNL1       -0.3535
     19 C         143.7357  134.7598  156.3883 C.3     1  UNL1        0.1458
     20 C         142.8751  135.9057  156.8313 C.3     1  UNL1        0.0726
     21 C         140.2665  136.3275  155.4154 C.3     1  UNL1        0.1254
     22 C         139.2001  137.3630  155.6168 C.2     1  UNL1        0.2297
     23 O         138.0128  137.2604  154.7060 O.2     1  UNL1       -0.2746
     24 N         139.1640  138.4877  156.6089 N.am    1  UNL1       -0.2814
     25 H         138.3642  139.0608  156.5760 H       1  UNL1        0.1549
     26 N         143.2734  140.1283  164.8444 N.am    1  UNL1       -0.2791
     27 C         142.2202  140.7977  165.6767 C.2     1  UNL1        0.2690
     28 O         141.3863  141.8972  165.0888 O.2     1  UNL1       -0.2681
     29 H         143.8208  139.4066  165.2302 H       1  UNL1        0.1552
     30 C         142.0008  140.3675  167.0968 C.ar    1  UNL1        0.1562
     31 C         140.6497  140.5266  167.7285 C.ar    1  UNL1        0.0310
     32 C         140.4304  140.0965  169.1486 C.ar    1  UNL1        0.0940
     33 C         141.5621  139.5072  169.9371 C.ar    1  UNL1        0.1260
     34 N         142.9133  139.3481  169.3055 N.ar    1  UNL1       -0.1463
     35 N         143.1327  139.7782  167.8853 N.ar    1  UNL1       -0.1433
     36 C         139.0791  140.2556  169.7803 C.3     1  UNL1        0.4201
     37 F         137.7280  140.4146  170.4119 F       1  UNL1       -0.1658
     38 F         138.4470  139.5846  168.5969 F       1  UNL1       -0.1658
     39 F         139.7113  140.9264  170.9636 F       1  UNL1       -0.1658
@<TRIPOS>BOND
     1     1     2    1
     2     2     3   ar
     3     3     4   ar
     4     4     5   ar
     5     5    26    1
     6    26    27   am
     7    27    28    2
     8    27    30    1
     9    30    31   ar
    10    31    32   ar
    11    32    36    1
    12    36    37    1
    13    36    38    1
    14    36    39    1
    15    32    33   ar
    16    33    34   ar
    17    34    35   ar
    18     5     6   ar
    19     6     7   ar
    20     7     8    1
    21     8     9   ar
    22     9    10   ar
    23    10    11   ar
    24    11    12   ar
    25    12    13   ar
    26    12    14    1
    27    14    15    1
    28    15    16    1
    29    16    17    1
    30    17    18    1
    31    18    19    1
    32    19    20    1
    33    15    21    1
    34    21    22    1
    35    22    23    2
    36    22    24   am
    37     7     2   ar
    38    13     8   ar
    39    20    15    1
    40    35    30   ar
    41    24    11    1
    42    26    29    1
    43    24    25    1
@<TRIPOS>MOLECULE
*****
 39 43 0 0 0
SMALL
GASTEIGER

@<TRIPOS>ATOM
      1 C         138.8052  145.1525  162.7703 C.3     1  UNL1        0.0310
      2 C         139.7539  144.6433  161.7260 C.ar    1  UNL1       -0.0218
      3 C         140.3000  145.5790  160.6885 C.ar    1  UNL1       -0.0030
      4 C         141.2487  145.0696  159.6442 C.ar    1  UNL1        0.0144
      5 C         141.6514  143.6247  159.6374 C.ar    1  UNL1        0.0506
      6 C         141.1053  142.6891  160.6749 C.ar    1  UNL1        0.0144
      7 C         140.1566  143.1984  161.7191 C.ar    1  UNL1       -0.0026
      8 C         139.6105  142.2627  162.7567 C.ar    1  UNL1        0.0028
      9 C         138.5214  141.2963  162.3962 C.ar    1  UNL1        0.0015
     10 C         137.9754  140.3606  163.4336 C.ar    1  UNL1        0.0178
     11 C         138.5183  140.3913  164.8315 C.ar    1  UNL1        0.0847
     12 C         139.6074  141.3578  165.1920 C.ar    1  UNL1        0.1515
     13 C         140.1535  142.2935  164.1546 C.ar    1  UNL1        0.0382
     14 O         140.2851  141.5519  166.5161 O.3     1  UNL1       -0.4807
     15 C         140.0410  140.8275  167.8067 C.3     1  UNL1        0.1466
     16 C         139.8769  140.1668  169.1433 C.3     1  UNL1        0.0726
     17 C         140.7273  140.5967  170.3018 C.3     1  UNL1        0.1458
     18 O         141.7417  141.6872  170.1237 O.3     1  UNL1       -0.3535
     19 C         141.9058  142.3478  168.7870 C.3     1  UNL1        0.1458
     20 C         141.0554  141.9180  167.6286 C.3     1  UNL1        0.0726
     21 C         139.0590  139.7301  168.0920 C.3     1  UNL1        0.1254
     22 C         138.0785  139.0860  167.1572 C.2     1  UNL1        0.2297
     23 O         137.2260  138.0047  167.7520 O.2     1  UNL1       -0.2746
     24 N         137.8379  139.3804  165.7061 N.am    1  UNL1       -0.2814
     25 H         137.1413  138.8383  165.2701 H       1  UNL1        0.1549
     26 N         142.6001  143.1155  158.5931 N.am    1  UNL1       -0.2791
     27 C         144.0392  142.8743  158.9408 C.2     1  UNL1        0.2690
     28 O         144.5296  143.1425  160.3328 O.2     1  UNL1       -0.2681
     29 H         142.2782  142.9395  157.6795 H       1  UNL1        0.1552
     30 C         144.9880  142.3651  157.8966 C.ar    1  UNL1        0.1562
     31 C         144.5623  141.2664  156.9683 C.ar    1  UNL1        0.0310
     32 C         145.5110  140.7572  155.9240 C.ar    1  UNL1        0.0940
     33 C         146.8854  141.3465  155.8080 C.ar    1  UNL1        0.1260
     34 N         147.3112  142.4452  156.7362 N.ar    1  UNL1       -0.1463
     35 N         146.3625  142.9545  157.7805 N.ar    1  UNL1       -0.1433
     36 C         145.0853  139.6584  154.9957 C.3     1  UNL1        0.4201
     37 F         144.6597  138.5598  154.0675 F       1  UNL1       -0.1658
     38 F         145.9441  140.2409  153.9126 F       1  UNL1       -0.1658
     39 F         144.2266  139.0760  156.0789 F       1  UNL1       -0.1658
@<TRIPOS>BOND
     1     1     2    1
     2     2     3   ar
     3     3     4   ar
     4     4     5   ar
     5     5    26    1
     6    26    27   am
     7    27    28    2
     8    27    30    1
     9    30    31   ar
    10    31    32   ar
    11    32    36    1
    12    36    37    1
    13    36    38    1
    14    36    39    1
    15    32    33   ar
    16    33    34   ar
    17    34    35   ar
    18     5     6   ar
    19     6     7   ar
    20     7     8    1
    21     8     9   ar
    22     9    10   ar
    23    10    11   ar
    24    11    12   ar
    25    12    13   ar
    26    12    14    1
    27    14    15    1
    28    15    16    1
    29    16    17    1
    30    17    18    1
    31    18    19    1
    32    19    20    1
    33    15    21    1
    34    21    22    1
    35    22    23    2
    36    22    24   am
    37     7     2   ar
    38    13     8   ar
    39    20    15    1
    40    35    30   ar
    41    24    11    1
    42    26    29    1
    43    24    25    1
@<TRIPOS>MOLECULE
*****
 39 43 0 0 0
SMALL
GASTEIGER

@<TRIPOS>ATOM
      1 C         141.6241  137.2503  163.0425 C.3     1  UNL1        0.0310
      2 C         141.1860  138.3226  162.0896 C.ar    1  UNL1       -0.0218
      3 C         141.6282  138.2792  160.6568 C.ar    1  UNL1       -0.0030
      4 C         141.1900  139.3516  159.7039 C.ar    1  UNL1        0.0144
      5 C         140.3097  140.4672  160.1836 C.ar    1  UNL1        0.0506
      6 C         139.8676  140.5107  161.6163 C.ar    1  UNL1        0.0144
      7 C         140.3057  139.4384  162.5692 C.ar    1  UNL1       -0.0026
      8 C         139.8635  139.4818  164.0020 C.ar    1  UNL1        0.0028
      9 C         138.5821  138.8184  164.4118 C.ar    1  UNL1        0.0015
     10 C         138.1399  138.8618  165.8445 C.ar    1  UNL1        0.0178
     11 C         138.9790  139.5686  166.8673 C.ar    1  UNL1        0.0847
     12 C         140.2604  140.2320  166.4574 C.ar    1  UNL1        0.1515
     13 C         140.7026  140.1886  165.0248 C.ar    1  UNL1        0.0382
     14 O         141.2385  140.9844  167.3103 O.3     1  UNL1       -0.4807
     15 C         141.1768  141.2591  168.7837 C.3     1  UNL1        0.1466
     16 C         141.2125  141.5885  170.2466 C.3     1  UNL1        0.0726
     17 C         142.3571  142.3773  170.8100 C.3     1  UNL1        0.1458
     18 O         143.4662  142.8366  169.9106 O.3     1  UNL1       -0.3535
     19 C         143.4306  142.5072  168.4477 C.3     1  UNL1        0.1458
     20 C         142.2859  141.7184  167.8842 C.3     1  UNL1        0.0726
     21 C         140.1218  140.8493  169.7681 C.3     1  UNL1        0.1254
     22 C         138.8679  140.0636  169.5222 C.2     1  UNL1        0.2297
     23 O         138.0090  139.8150  170.7265 O.2     1  UNL1       -0.2746
     24 N         138.3593  139.4937  168.2312 N.am    1  UNL1       -0.2814
     25 H         137.5059  139.0059  168.2864 H       1  UNL1        0.1549
     26 N         139.8716  141.5396  159.2307 N.am    1  UNL1       -0.2791
     27 C         138.7840  141.2604  158.2360 C.2     1  UNL1        0.2690
     28 O         138.1346  139.9090  158.1944 O.2     1  UNL1       -0.2681
     29 H         140.2978  142.4266  159.2580 H       1  UNL1        0.1552
     30 C         138.3458  142.3327  157.2830 C.ar    1  UNL1        0.1562
     31 C         139.2341  143.5128  157.0220 C.ar    1  UNL1        0.0310
     32 C         138.7960  144.5851  156.0690 C.ar    1  UNL1        0.0940
     33 C         137.4695  144.4773  155.3771 C.ar    1  UNL1        0.1260
     34 N         136.5812  143.2973  155.6381 N.ar    1  UNL1       -0.1463
     35 N         137.0192  142.2249  156.5911 N.ar    1  UNL1       -0.1433
     36 C         139.6844  145.7653  155.8079 C.3     1  UNL1        0.4201
     37 F         140.5726  146.9454  155.5469 F       1  UNL1       -0.1658
     38 F         138.4797  146.6563  155.7369 F       1  UNL1       -0.1658
     39 F         140.8889  144.8742  155.8790 F       1  UNL1       -0.1658
@<TRIPOS>BOND
     1     1     2    1
     2     2     3   ar
     3     3     4   ar
     4     4     5   ar
     5     5    26    1
     6    26    27   am
     7    27    28    2
     8    27    30    1
     9    30    31   ar
    10    31    32   ar
    11    32    36    1
    12    36    37    1
    13    36    38    1
    14    36    39    1
    15    32    33   ar
    16    33    34   ar
    17    34    35   ar
    18     5     6   ar
    19     6     7   ar
    20     7     8    1
    21     8     9   ar
    22     9    10   ar
    23    10    11   ar
    24    11    12   ar
    25    12    13   ar
    26    12    14    1
    27    14    15    1
    28    15    16    1
    29    16    17    1
    30    17    18    1
    31    18    19    1
    32    19    20    1
    33    15    21    1
    34    21    22    1
    35    22    23    2
    36    22    24   am
    37     7     2   ar
    38    13     8   ar
    39    20    15    1
    40    35    30   ar
    41    24    11    1
    42    26    29    1
    43    24    25    1
@<TRIPOS>MOLECULE
*****
 39 43 0 0 0
SMALL
GASTEIGER

@<TRIPOS>ATOM
      1 C         142.7521  142.9260  156.0284 C.3     1  UNL1        0.0310
      2 C         142.5767  141.4415  156.1525 C.ar    1  UNL1       -0.0218
      3 C         142.3127  140.6127  154.9304 C.ar    1  UNL1       -0.0030
      4 C         142.1373  139.1281  155.0546 C.ar    1  UNL1        0.0144
      5 C         142.2259  138.4724  156.4007 C.ar    1  UNL1        0.0506
      6 C         142.4899  139.3012  157.6227 C.ar    1  UNL1        0.0144
      7 C         142.6653  140.7857  157.4986 C.ar    1  UNL1       -0.0026
      8 C         142.9293  141.6145  158.7207 C.ar    1  UNL1        0.0028
      9 C         144.3316  142.0254  159.0597 C.ar    1  UNL1        0.0015
     10 C         144.5956  142.8541  160.2817 C.ar    1  UNL1        0.0178
     11 C         143.4574  143.2720  161.1648 C.ar    1  UNL1        0.0847
     12 C         142.0552  142.8611  160.8258 C.ar    1  UNL1        0.1515
     13 C         141.7911  142.0324  159.6038 C.ar    1  UNL1        0.0382
     14 O         140.7863  143.1677  161.5647 O.3     1  UNL1       -0.4807
     15 C         140.6062  143.9608  162.8251 C.3     1  UNL1        0.1466
     16 C         140.3162  144.7338  164.0775 C.3     1  UNL1        0.0726
     17 C         138.9052  144.8613  164.5702 C.3     1  UNL1        0.1458
     18 O         137.7843  144.2159  163.8106 O.3     1  UNL1       -0.3535
     19 C         138.0743  143.4429  162.5583 C.3     1  UNL1        0.1458
     20 C         139.4853  143.3154  162.0656 C.3     1  UNL1        0.0726
     21 C         141.6506  144.6433  163.6579 C.3     1  UNL1        0.1254
     22 C         143.1330  144.7012  163.4360 C.2     1  UNL1        0.2297
     23 O         143.9146  145.4712  164.4587 O.2     1  UNL1       -0.2746
     24 N         143.9371  144.0909  162.3264 N.am    1  UNL1       -0.2814
     25 H         144.9081  144.2487  162.3658 H       1  UNL1        0.1549
     26 N         142.0505  136.9879  156.5248 N.am    1  UNL1       -0.2791
     27 C         143.1832  136.0673  156.1790 C.2     1  UNL1        0.2690
     28 O         144.4913  136.6313  155.7091 O.2     1  UNL1       -0.2681
     29 H         141.1920  136.6178  156.8332 H       1  UNL1        0.1552
     30 C         143.0079  134.5828  156.3031 C.ar    1  UNL1        0.1562
     31 C         144.0225  133.7674  157.0483 C.ar    1  UNL1        0.0310
     32 C         143.8471  132.2829  157.1724 C.ar    1  UNL1        0.0940
     33 C         142.6571  131.6138  156.5512 C.ar    1  UNL1        0.1260
     34 N         141.6423  132.4291  155.8060 N.ar    1  UNL1       -0.1463
     35 N         141.8177  133.9136  155.6818 N.ar    1  UNL1       -0.1433
     36 C         144.8619  131.4674  157.9177 C.3     1  UNL1        0.4201
     37 F         145.8765  130.6519  158.6629 F       1  UNL1       -0.1658
     38 F         144.1046  130.2172  157.5807 F       1  UNL1       -0.1658
     39 F         145.6190  132.7176  158.2547 F       1  UNL1       -0.1658
@<TRIPOS>BOND
     1     1     2    1
     2     2     3   ar
     3     3     4   ar
     4     4     5   ar
     5     5    26    1
     6    26    27   am
     7    27    28    2
     8    27    30    1
     9    30    31   ar
    10    31    32   ar
    11    32    36    1
    12    36    37    1
    13    36    38    1
    14    36    39    1
    15    32    33   ar
    16    33    34   ar
    17    34    35   ar
    18     5     6   ar
    19     6     7   ar
    20     7     8    1
    21     8     9   ar
    22     9    10   ar
    23    10    11   ar
    24    11    12   ar
    25    12    13   ar
    26    12    14    1
    27    14    15    1
    28    15    16    1
    29    16    17    1
    30    17    18    1
    31    18    19    1
    32    19    20    1
    33    15    21    1
    34    21    22    1
    35    22    23    2
    36    22    24   am
    37     7     2   ar
    38    13     8   ar
    39    20    15    1
    40    35    30   ar
    41    24    11    1
    42    26    29    1
    43    24    25    1
@<TRIPOS>MOLECULE
*****
 39 43 0 0 0
SMALL
GASTEIGER

@<TRIPOS>ATOM
      1 C         144.0840  140.3889  157.1489 C.3     1  UNL1        0.0310
      2 C         143.3238  140.4094  158.4418 C.ar    1  UNL1       -0.0218
      3 C         143.6060  141.4733  159.4609 C.ar    1  UNL1       -0.0030
      4 C         142.8457  141.4938  160.7538 C.ar    1  UNL1        0.0144
      5 C         141.8033  140.4505  161.0275 C.ar    1  UNL1        0.0506
      6 C         141.5212  139.3867  160.0084 C.ar    1  UNL1        0.0144
      7 C         142.2814  139.3662  158.7156 C.ar    1  UNL1       -0.0026
      8 C         141.9993  138.3022  157.6964 C.ar    1  UNL1        0.0028
      9 C         141.0016  138.5548  156.6051 C.ar    1  UNL1        0.0015
     10 C         140.7194  137.4910  155.5860 C.ar    1  UNL1        0.0178
     11 C         141.4349  136.1746  155.6581 C.ar    1  UNL1        0.0847
     12 C         142.4326  135.9221  156.7493 C.ar    1  UNL1        0.1515
     13 C         142.7148  136.9859  157.7685 C.ar    1  UNL1        0.0382
     14 O         143.2503  134.6902  157.0023 O.3     1  UNL1       -0.4807
     15 C         143.2723  133.4066  156.2264 C.3     1  UNL1        0.1466
     16 C         143.3710  132.0855  155.5231 C.3     1  UNL1        0.0726
     17 C         144.3070  131.0313  156.0354 C.3     1  UNL1        0.1458
     18 O         145.1443  131.2982  157.2510 O.3     1  UNL1       -0.3535
     19 C         145.0456  132.6194  157.9543 C.3     1  UNL1        0.1458
     20 C         144.1096  133.6736  157.4420 C.3     1  UNL1        0.0726
     21 C         142.4819  133.0379  155.0060 C.3     1  UNL1        0.1254
     22 C         141.4745  133.8617  154.2600 C.2     1  UNL1        0.2297
     23 O         140.8505  133.2024  153.0660 O.2     1  UNL1       -0.2746
     24 N         141.0085  135.2577  154.5503 N.am    1  UNL1       -0.2814
     25 H         140.3336  135.6200  153.9318 H       1  UNL1        0.1549
     26 N         141.0431  140.4710  162.3204 N.am    1  UNL1       -0.2791
     27 C         141.7505  140.1820  163.6112 C.2     1  UNL1        0.2690
     28 O         143.2182  139.8725  163.6090 O.2     1  UNL1       -0.2681
     29 H         140.0798  140.6742  162.3219 H       1  UNL1        0.1552
     30 C         140.9903  140.2026  164.9041 C.ar    1  UNL1        0.1562
     31 C         139.9046  139.1977  165.1518 C.ar    1  UNL1        0.0310
     32 C         139.1444  139.2182  166.4447 C.ar    1  UNL1        0.0940
     33 C         139.4698  140.2436  167.4899 C.ar    1  UNL1        0.1260
     34 N         140.5554  141.2486  167.2423 N.ar    1  UNL1       -0.1463
     35 N         141.3158  141.2281  165.9494 N.ar    1  UNL1       -0.1433
     36 C         138.0587  138.2132  166.6925 C.3     1  UNL1        0.4201
     37 F         136.9730  137.2083  166.9401 F       1  UNL1       -0.1658
     38 F         138.4778  137.4582  165.4659 F       1  UNL1       -0.1658
     39 F         137.6396  138.9683  167.9189 F       1  UNL1       -0.1658
@<TRIPOS>BOND
     1     1     2    1
     2     2     3   ar
     3     3     4   ar
     4     4     5   ar
     5     5    26    1
     6    26    27   am
     7    27    28    2
     8    27    30    1
     9    30    31   ar
    10    31    32   ar
    11    32    36    1
    12    36    37    1
    13    36    38    1
    14    36    39    1
    15    32    33   ar
    16    33    34   ar
    17    34    35   ar
    18     5     6   ar
    19     6     7   ar
    20     7     8    1
    21     8     9   ar
    22     9    10   ar
    23    10    11   ar
    24    11    12   ar
    25    12    13   ar
    26    12    14    1
    27    14    15    1
    28    15    16    1
    29    16    17    1
    30    17    18    1
    31    18    19    1
    32    19    20    1
    33    15    21    1
    34    21    22    1
    35    22    23    2
    36    22    24   am
    37     7     2   ar
    38    13     8   ar
    39    20    15    1
    40    35    30   ar
    41    24    11    1
    42    26    29    1
    43    24    25    1
