@<TRIPOS>MOLECULE
*****
 37 41 0 0 0
SMALL
GASTEIGER

@<TRIPOS>ATOM
      1 C         143.7314  137.6394  166.8385 C.3     1  UNL1        0.0323
      2 C         142.9500  138.9131  166.7087 C.ar    1  UNL1       -0.0060
      3 C         142.4377  139.7526  167.8413 C.ar    1  UNL1        0.0438
      4 C         141.7147  140.9294  167.2560 C.ar    1  UNL1        0.0435
      5 N         141.7801  140.8172  165.7616 N.ar    1  UNL1       -0.3137
      6 C         142.5435  139.5711  165.4233 C.ar    1  UNL1        0.0372
      7 C         143.1151  138.6354  164.3997 C.3     1  UNL1        0.0452
      8 C         143.3415  138.2608  162.9650 C.3     1  UNL1        0.0235
      9 C         143.1623  138.5477  161.5036 C.3     1  UNL1        0.0725
     10 N         142.6254  139.4191  160.4072 N.3     1  UNL1       -0.2724
     11 C         143.1969  138.4834  159.3836 C.3     1  UNL1        0.0721
     12 C         143.0176  138.7703  157.9223 C.3     1  UNL1        0.0174
     13 C         142.2668  139.9929  157.4845 C.3     1  UNL1        0.0029
     14 C         141.6953  140.9286  158.5081 C.3     1  UNL1        0.0177
     15 C         141.8746  140.6417  159.9695 C.3     1  UNL1        0.0753
     16 C         141.1112  141.8878  160.3077 C.3     1  UNL1        0.0838
     17 C         140.7404  142.4874  158.9838 C.3     1  UNL1        0.0226
     18 N         140.5397  142.8235  161.3314 N.pl3   1  UNL1       -0.3327
     19 C         140.3132  143.1981  162.7661 C.ar    1  UNL1        0.0504
     20 C         140.4925  142.9112  164.2274 C.ar    1  UNL1        0.0319
     21 C         141.0294  142.0398  165.3239 C.ar    1  UNL1        0.0646
     22 C         140.2643  143.2890  165.7643 C.ar    1  UNL1        0.0177
     23 C         139.5977  144.3730  164.9701 C.ar    1  UNL1        0.0072
     24 C         139.6222  144.3275  163.4710 C.ar    1  UNL1        0.0663
     25 C         141.0902  141.9511  168.1594 C.3     1  UNL1        0.0446
     26 C         141.1887  141.7960  169.6481 C.3     1  UNL1        0.0128
     27 C         141.0151  142.0845  171.1098 C.3     1  UNL1        0.0008
     28 C         140.4054  143.0729  169.5705 C.3     1  UNL1        0.0008
     29 C         141.9117  140.6193  170.2334 C.3     1  UNL1        0.0695
     30 C         142.5362  139.5976  169.3300 C.2     1  UNL1        0.1739
     31 O         143.2591  138.4209  169.9153 O.2     1  UNL1       -0.2913
     32 H         140.1022  143.5350  160.8102 H       1  UNL1        0.1468
     33 C         138.9556  145.4115  162.6769 C.2     1  UNL1        0.2439
     34 N         139.7679  146.5470  162.1285 N.am    1  UNL1       -0.3253
     35 O         137.4767  145.3599  162.4312 O.2     1  UNL1       -0.2703
     36 H         140.7385  146.5808  162.2897 H       1  UNL1        0.1453
     37 H         139.3304  147.2585  161.6073 H       1  UNL1        0.1453
@<TRIPOS>BOND
     1     1     2    1
     2     2     3   ar
     3     3     4   ar
     4     4     5   ar
     5     5     6   ar
     6     6     7    1
     7     7     8    1
     8     8     9    1
     9     9    10    1
    10    10    11    1
    11    11    12    1
    12    12    13    1
    13    13    14    1
    14    15    14    1
    15    15    16    1
    16    16    17    1
    17    16    18    1
    18    18    19    1
    19    19    20   ar
    20    20    21   ar
    21    21    22   ar
    22    22    23   ar
    23    23    24   ar
    24    24    33    1
    25    33    34   am
    26    33    35    2
    27     4    25    1
    28    25    26    1
    29    26    27    1
    30    26    28    1
    31    26    29    1
    32    29    30    1
    33    30    31    2
    34     6     2   ar
    35    15    10    1
    36    24    19   ar
    37    30     3    1
    38    21     5    1
    39    18    32    1
    40    34    36    1
    41    34    37    1
@<TRIPOS>MOLECULE
*****
 37 41 0 0 0
SMALL
GASTEIGER

@<TRIPOS>ATOM
      1 C         137.5938  137.9611  166.6589 C.3     1  UNL1        0.0323
      2 C         138.5872  139.0790  166.5438 C.ar    1  UNL1       -0.0060
      3 C         139.0543  139.9622  167.6626 C.ar    1  UNL1        0.0438
      4 C         140.0438  140.9391  167.0999 C.ar    1  UNL1        0.0435
      5 N         140.1884  140.6596  165.6333 N.ar    1  UNL1       -0.3137
      6 C         139.2882  139.5100  165.2896 C.ar    1  UNL1        0.0372
      7 C         138.7308  138.5543  164.2767 C.3     1  UNL1        0.0452
      8 C         138.6656  138.0485  162.8661 C.3     1  UNL1        0.0235
      9 C         139.1101  138.1281  161.4356 C.3     1  UNL1        0.0725
     10 N         139.9451  138.7718  160.3687 N.3     1  UNL1       -0.2724
     11 C         139.3877  137.8161  159.3559 C.3     1  UNL1        0.0721
     12 C         139.8322  137.8957  157.9255 C.3     1  UNL1        0.0174
     13 C         140.8340  138.9311  157.5079 C.3     1  UNL1        0.0029
     14 C         141.3914  139.8868  158.5208 C.3     1  UNL1        0.0177
     15 C         140.9469  139.8072  159.9511 C.3     1  UNL1        0.0753
     16 C         141.8471  140.9567  160.2949 C.3     1  UNL1        0.0838
     17 C         142.5095  141.3312  159.0022 C.3     1  UNL1        0.0226
     18 N         142.4045  141.9125  161.3078 N.pl3   1  UNL1       -0.3327
     19 C         142.4697  142.4183  162.7184 C.ar    1  UNL1        0.0504
     20 C         142.0252  142.3386  164.1488 C.ar    1  UNL1        0.0319
     21 C         141.1902  141.6949  165.2157 C.ar    1  UNL1        0.0646
     22 C         142.0771  142.8596  165.6597 C.ar    1  UNL1        0.0177
     23 C         143.0279  143.7287  164.8912 C.ar    1  UNL1        0.0072
     24 C         143.2242  143.5081  163.4206 C.ar    1  UNL1        0.0663
     25 C         140.6854  141.9569  167.9958 C.3     1  UNL1        0.0446
     26 C         140.3375  141.9979  169.4542 C.3     1  UNL1        0.0128
     27 C         140.3327  142.4302  170.8905 C.3     1  UNL1        0.0008
     28 C         141.3253  143.1248  169.3904 C.3     1  UNL1        0.0008
     29 C         139.3480  141.0210  170.0170 C.3     1  UNL1        0.0695
     30 C         138.7063  140.0032  169.1211 C.2     1  UNL1        0.1739
     31 O         137.7169  139.0264  169.6838 O.2     1  UNL1       -0.2913
     32 H         143.0286  142.4829  160.8034 H       1  UNL1        0.1468
     33 C         144.1750  144.3772  162.6522 C.2     1  UNL1        0.2439
     34 N         144.2690  145.8420  162.9613 N.am    1  UNL1       -0.3253
     35 O         145.0318  143.7816  161.5746 O.2     1  UNL1       -0.2703
     36 H         143.7066  146.2329  163.6686 H       1  UNL1        0.1453
     37 H         144.8931  146.4125  162.4570 H       1  UNL1        0.1453
@<TRIPOS>BOND
     1     1     2    1
     2     2     3   ar
     3     3     4   ar
     4     4     5   ar
     5     5     6   ar
     6     6     7    1
     7     7     8    1
     8     8     9    1
     9     9    10    1
    10    10    11    1
    11    11    12    1
    12    12    13    1
    13    13    14    1
    14    15    14    1
    15    15    16    1
    16    16    17    1
    17    16    18    1
    18    18    19    1
    19    19    20   ar
    20    20    21   ar
    21    21    22   ar
    22    22    23   ar
    23    23    24   ar
    24    24    33    1
    25    33    34   am
    26    33    35    2
    27     4    25    1
    28    25    26    1
    29    26    27    1
    30    26    28    1
    31    26    29    1
    32    29    30    1
    33    30    31    2
    34     6     2   ar
    35    15    10    1
    36    24    19   ar
    37    30     3    1
    38    21     5    1
    39    18    32    1
    40    34    36    1
    41    34    37    1
@<TRIPOS>MOLECULE
*****
 37 41 0 0 0
SMALL
GASTEIGER

@<TRIPOS>ATOM
      1 C         144.9886  143.4019  166.1556 C.3     1  UNL1        0.0323
      2 C         143.7226  142.6296  165.9301 C.ar    1  UNL1       -0.0060
      3 C         142.7889  142.1367  166.9955 C.ar    1  UNL1        0.0438
      4 C         141.6572  141.4171  166.3234 C.ar    1  UNL1        0.0435
      5 N         141.8916  141.4654  164.8426 N.ar    1  UNL1       -0.3137
      6 C         143.1680  142.2147  164.5995 C.ar    1  UNL1        0.0372
      7 C         144.1893  142.7673  163.6500 C.3     1  UNL1        0.0452
      8 C         144.6818  142.9751  162.2485 C.3     1  UNL1        0.0235
      9 C         144.5135  142.7823  160.7704 C.3     1  UNL1        0.0725
     10 N         143.7295  142.2407  159.6120 N.3     1  UNL1       -0.2724
     11 C         144.7508  142.7933  158.6625 C.3     1  UNL1        0.0721
     12 C         144.5825  142.6005  157.1845 C.3     1  UNL1        0.0174
     13 C         143.3929  141.8552  156.6560 C.3     1  UNL1        0.0029
     14 C         142.3716  141.3026  157.6055 C.3     1  UNL1        0.0177
     15 C         142.5399  141.4954  159.0835 C.3     1  UNL1        0.0753
     16 C         141.2635  140.7460  159.3266 C.3     1  UNL1        0.0838
     17 C         140.7705  140.3658  157.9619 C.3     1  UNL1        0.0226
     18 N         140.2422  140.1934  160.2761 N.pl3   1  UNL1       -0.3327
     19 C         139.7497  139.9856  161.6777 C.ar    1  UNL1        0.0504
     20 C         139.9180  140.1784  163.1557 C.ar    1  UNL1        0.0319
     21 C         140.7020  140.7200  164.3141 C.ar    1  UNL1        0.0646
     22 C         139.4141  139.9701  164.6588 C.ar    1  UNL1        0.0177
     23 C         138.3925  139.3039  163.7855 C.ar    1  UNL1        0.0072
     24 C         138.5603  139.3117  162.2949 C.ar    1  UNL1        0.0663
     25 C         140.5596  140.8109  167.1467 C.3     1  UNL1        0.0446
     26 C         140.5935  140.9243  168.6420 C.3     1  UNL1        0.0128
     27 C         140.1852  140.7690  170.0769 C.3     1  UNL1        0.0008
     28 C         139.3201  140.1508  168.4683 C.3     1  UNL1        0.0008
     29 C         141.7251  141.6438  169.3141 C.3     1  UNL1        0.0695
     30 C         142.8228  142.2501  168.4908 C.2     1  UNL1        0.1739
     31 O         143.9544  142.9696  169.1629 O.2     1  UNL1       -0.2913
     32 H         139.5717  139.7562  159.7030 H       1  UNL1        0.1468
     33 C         137.5387  138.6455  161.4217 C.2     1  UNL1        0.2439
     34 N         137.1321  137.2270  161.6913 N.am    1  UNL1       -0.3253
     35 O         136.9237  139.3978  160.2790 O.2     1  UNL1       -0.2703
     36 H         137.5358  136.7333  162.4413 H       1  UNL1        0.1453
     37 H         136.4616  136.7898  161.1182 H       1  UNL1        0.1453
@<TRIPOS>BOND
     1     1     2    1
     2     2     3   ar
     3     3     4   ar
     4     4     5   ar
     5     5     6   ar
     6     6     7    1
     7     7     8    1
     8     8     9    1
     9     9    10    1
    10    10    11    1
    11    11    12    1
    12    12    13    1
    13    13    14    1
    14    15    14    1
    15    15    16    1
    16    16    17    1
    17    16    18    1
    18    18    19    1
    19    19    20   ar
    20    20    21   ar
    21    21    22   ar
    22    22    23   ar
    23    23    24   ar
    24    24    33    1
    25    33    34   am
    26    33    35    2
    27     4    25    1
    28    25    26    1
    29    26    27    1
    30    26    28    1
    31    26    29    1
    32    29    30    1
    33    30    31    2
    34     6     2   ar
    35    15    10    1
    36    24    19   ar
    37    30     3    1
    38    21     5    1
    39    18    32    1
    40    34    36    1
    41    34    37    1
@<TRIPOS>MOLECULE
*****
 37 41 0 0 0
SMALL
GASTEIGER

@<TRIPOS>ATOM
      1 C         141.3076  137.5792  158.0124 C.3     1  UNL1        0.0323
      2 C         142.0439  138.7377  158.6172 C.ar    1  UNL1       -0.0060
      3 C         143.0841  139.5750  157.9338 C.ar    1  UNL1        0.0438
      4 C         143.5522  140.6171  158.9059 C.ar    1  UNL1        0.0435
      5 N         142.8014  140.4239  160.1900 N.ar    1  UNL1       -0.3137
      6 C         141.8692  139.2624  160.0116 C.ar    1  UNL1        0.0372
      7 C         140.8187  138.3436  160.5611 C.3     1  UNL1        0.0452
      8 C         139.9312  137.9137  161.6914 C.3     1  UNL1        0.0235
      9 C         139.4446  138.0879  163.0996 C.3     1  UNL1        0.0725
     10 N         139.4893  138.8196  164.4083 N.3     1  UNL1       -0.2724
     11 C         138.4387  137.9008  164.9579 C.3     1  UNL1        0.0721
     12 C         137.9522  138.0750  166.3660 C.3     1  UNL1        0.0174
     13 C         138.5162  139.1680  167.2246 C.3     1  UNL1        0.0029
     14 C         139.5668  140.0868  166.6750 C.3     1  UNL1        0.0177
     15 C         140.0533  139.9126  165.2669 C.3     1  UNL1        0.0753
     16 C         140.9856  141.0741  165.4453 C.3     1  UNL1        0.0838
     17 C         140.7569  141.5430  166.8516 C.3     1  UNL1        0.0226
     18 N         142.0362  141.9929  164.8957 N.pl3   1  UNL1       -0.3327
     19 C         142.9237  142.4228  163.7654 C.ar    1  UNL1        0.0504
     20 C         143.4102  142.2485  162.3572 C.ar    1  UNL1        0.0319
     21 C         143.3655  141.5169  161.0486 C.ar    1  UNL1        0.0646
     22 C         144.3462  142.6875  161.1374 C.ar    1  UNL1        0.0177
     23 C         144.6613  143.6320  162.2593 C.ar    1  UNL1        0.0072
     24 C         143.9501  143.4996  163.5733 C.ar    1  UNL1        0.0663
     25 C         144.6018  141.6074  158.4961 C.3     1  UNL1        0.0446
     26 C         145.1832  141.5555  157.1143 C.3     1  UNL1        0.0128
     27 C         146.0291  141.9082  155.9269 C.3     1  UNL1        0.0008
     28 C         145.9451  142.7201  157.6739 C.3     1  UNL1        0.0008
     29 C         144.7150  140.5134  156.1422 C.3     1  UNL1        0.0695
     30 C         143.6654  139.5232  156.5520 C.2     1  UNL1        0.1739
     31 O         143.1972  138.4811  155.5801 O.2     1  UNL1       -0.2913
     32 H         142.2430  142.6128  165.6320 H       1  UNL1        0.1468
     33 C         144.2652  144.4442  164.6952 C.2     1  UNL1        0.2439
     34 N         144.9214  143.9334  165.9436 N.am    1  UNL1       -0.3253
     35 O         143.9241  145.8994  164.5685 O.2     1  UNL1       -0.2703
     36 H         145.1452  142.9783  166.0266 H       1  UNL1        0.1453
     37 H         145.1282  144.5533  166.6799 H       1  UNL1        0.1453
@<TRIPOS>BOND
     1     1     2    1
     2     2     3   ar
     3     3     4   ar
     4     4     5   ar
     5     5     6   ar
     6     6     7    1
     7     7     8    1
     8     8     9    1
     9     9    10    1
    10    10    11    1
    11    11    12    1
    12    12    13    1
    13    13    14    1
    14    15    14    1
    15    15    16    1
    16    16    17    1
    17    16    18    1
    18    18    19    1
    19    19    20   ar
    20    20    21   ar
    21    21    22   ar
    22    22    23   ar
    23    23    24   ar
    24    24    33    1
    25    33    34   am
    26    33    35    2
    27     4    25    1
    28    25    26    1
    29    26    27    1
    30    26    28    1
    31    26    29    1
    32    29    30    1
    33    30    31    2
    34     6     2   ar
    35    15    10    1
    36    24    19   ar
    37    30     3    1
    38    21     5    1
    39    18    32    1
    40    34    36    1
    41    34    37    1
@<TRIPOS>MOLECULE
*****
 37 41 0 0 0
SMALL
GASTEIGER

@<TRIPOS>ATOM
      1 C         142.9670  136.8682  158.1562 C.3     1  UNL1        0.0323
      2 C         142.7677  138.3539  158.2110 C.ar    1  UNL1       -0.0060
      3 C         143.2340  139.3444  157.1856 C.ar    1  UNL1        0.0438
      4 C         142.8216  140.7126  157.6417 C.ar    1  UNL1        0.0435
      5 N         142.1005  140.5677  158.9490 N.ar    1  UNL1       -0.3137
      6 C         142.0672  139.1100  159.3009 C.ar    1  UNL1        0.0372
      7 C         141.6647  138.0081  160.2356 C.3     1  UNL1        0.0452
      8 C         141.0008  137.5574  161.5030 C.3     1  UNL1        0.0235
      9 C         140.2534  137.8787  162.7633 C.3     1  UNL1        0.0725
     10 N         139.6228  138.8857  163.6787 N.3     1  UNL1       -0.2724
     11 C         139.2202  137.7839  164.6135 C.3     1  UNL1        0.0721
     12 C         138.4729  138.1052  165.8737 C.3     1  UNL1        0.0174
     13 C         138.1280  139.5282  166.1992 C.3     1  UNL1        0.0029
     14 C         138.5306  140.6301  165.2644 C.3     1  UNL1        0.0177
     15 C         139.2779  140.3088  164.0042 C.3     1  UNL1        0.0753
     16 C         139.3113  141.7666  163.6523 C.3     1  UNL1        0.0838
     17 C         138.5980  142.4542  164.7785 C.3     1  UNL1        0.0226
     18 N         139.7139  142.8684  162.7175 N.pl3   1  UNL1       -0.3327
     19 C         140.3778  143.3191  161.4501 C.ar    1  UNL1        0.0504
     20 C         141.1251  142.9979  160.1899 C.ar    1  UNL1        0.0319
     21 C         141.7557  141.9908  159.2744 C.ar    1  UNL1        0.0646
     22 C         141.8388  143.4532  158.8334 C.ar    1  UNL1        0.0177
     23 C         141.3339  144.7111  159.4758 C.ar    1  UNL1        0.0072
     24 C         140.6034  144.6441  160.7842 C.ar    1  UNL1        0.0663
     25 C         143.1561  141.9137  156.8077 C.3     1  UNL1        0.0446
     26 C         143.9029  141.7466  155.5176 C.3     1  UNL1        0.0128
     27 C         144.5892  142.0970  154.2307 C.3     1  UNL1        0.0008
     28 C         143.7289  143.2365  155.5267 C.3     1  UNL1        0.0008
     29 C         144.3152  140.3784  155.0614 C.3     1  UNL1        0.0695
     30 C         143.9808  139.1773  155.8955 C.2     1  UNL1        0.1739
     31 O         144.3931  137.8092  155.4394 O.2     1  UNL1       -0.2913
     32 H         139.3825  143.6941  163.1390 H       1  UNL1        0.1468
     33 C         140.0985  145.9021  161.4265 C.2     1  UNL1        0.2439
     34 N         140.6106  146.3133  162.7751 N.am    1  UNL1       -0.3253
     35 O         139.0814  146.7487  160.7202 O.2     1  UNL1       -0.2703
     36 H         141.2781  145.7575  163.2386 H       1  UNL1        0.1453
     37 H         140.2792  147.1389  163.1967 H       1  UNL1        0.1453
@<TRIPOS>BOND
     1     1     2    1
     2     2     3   ar
     3     3     4   ar
     4     4     5   ar
     5     5     6   ar
     6     6     7    1
     7     7     8    1
     8     8     9    1
     9     9    10    1
    10    10    11    1
    11    11    12    1
    12    12    13    1
    13    13    14    1
    14    15    14    1
    15    15    16    1
    16    16    17    1
    17    16    18    1
    18    18    19    1
    19    19    20   ar
    20    20    21   ar
    21    21    22   ar
    22    22    23   ar
    23    23    24   ar
    24    24    33    1
    25    33    34   am
    26    33    35    2
    27     4    25    1
    28    25    26    1
    29    26    27    1
    30    26    28    1
    31    26    29    1
    32    29    30    1
    33    30    31    2
    34     6     2   ar
    35    15    10    1
    36    24    19   ar
    37    30     3    1
    38    21     5    1
    39    18    32    1
    40    34    36    1
    41    34    37    1
@<TRIPOS>MOLECULE
*****
 37 41 0 0 0
SMALL
GASTEIGER

@<TRIPOS>ATOM
      1 C         144.8374  141.6749  161.5160 C.3     1  UNL1        0.0323
      2 C         143.7940  142.5908  160.9483 C.ar    1  UNL1       -0.0060
      3 C         142.6678  143.2241  161.7102 C.ar    1  UNL1        0.0438
      4 C         141.8714  144.0589  160.7516 C.ar    1  UNL1        0.0435
      5 N         142.5054  143.9416  159.3973 N.ar    1  UNL1       -0.3137
      6 C         143.6936  143.0343  159.5188 C.ar    1  UNL1        0.0372
      7 C         144.8629  142.3343  158.8923 C.3     1  UNL1        0.0452
      8 C         145.7000  142.0291  157.6856 C.3     1  UNL1        0.0235
      9 C         145.9806  142.2005  156.2220 C.3     1  UNL1        0.0725
     10 N         145.6295  142.8026  154.8938 N.3     1  UNL1       -0.2724
     11 C         146.7988  142.1026  154.2673 C.3     1  UNL1        0.0721
     12 C         147.0794  142.2741  152.8038 C.3     1  UNL1        0.0174
     13 C         146.1906  143.1456  151.9669 C.3     1  UNL1        0.0029
     14 C         145.0213  143.8456  152.5934 C.3     1  UNL1        0.0177
     15 C         144.7407  143.6742  154.0569 C.3     1  UNL1        0.0753
     16 C         143.5525  144.5815  153.9354 C.3     1  UNL1        0.0838
     17 C         143.5159  144.9820  152.4903 C.3     1  UNL1        0.0226
     18 N         142.3831  145.2815  154.5620 N.pl3   1  UNL1       -0.3327
     19 C         141.5460  145.5867  155.7687 C.ar    1  UNL1        0.0504
     20 C         141.2655  145.4153  157.2321 C.ar    1  UNL1        0.0319
     21 C         141.6166  144.8131  158.5603 C.ar    1  UNL1        0.0646
     22 C         140.3889  145.7252  158.5330 C.ar    1  UNL1        0.0177
     23 C         139.7471  146.4881  157.4122 C.ar    1  UNL1        0.0072
     24 C         140.3256  146.4188  156.0300 C.ar    1  UNL1        0.0663
     25 C         140.6717  144.8181  161.2360 C.3     1  UNL1        0.0446
     26 C         140.2684  144.7425  162.6787 C.3     1  UNL1        0.0128
     27 C         139.4954  144.9861  163.9408 C.3     1  UNL1        0.0008
     28 C         139.2036  145.6619  162.1586 C.3     1  UNL1        0.0008
     29 C         141.0648  143.9076  163.6373 C.3     1  UNL1        0.0695
     30 C         142.2645  143.1484  163.1530 C.2     1  UNL1        0.1739
     31 O         143.0609  142.3136  164.1115 O.2     1  UNL1       -0.2913
     32 H         141.9618  145.7822  153.8264 H       1  UNL1        0.1468
     33 C         139.6838  147.1816  154.9092 C.2     1  UNL1        0.2439
     34 N         138.1930  147.3425  154.8688 N.am    1  UNL1       -0.3253
     35 O         140.5328  147.7836  153.8290 O.2     1  UNL1       -0.2703
     36 H         137.6358  146.9474  155.5778 H       1  UNL1        0.1453
     37 H         137.7717  147.8432  154.1332 H       1  UNL1        0.1453
@<TRIPOS>BOND
     1     1     2    1
     2     2     3   ar
     3     3     4   ar
     4     4     5   ar
     5     5     6   ar
     6     6     7    1
     7     7     8    1
     8     8     9    1
     9     9    10    1
    10    10    11    1
    11    11    12    1
    12    12    13    1
    13    13    14    1
    14    15    14    1
    15    15    16    1
    16    16    17    1
    17    16    18    1
    18    18    19    1
    19    19    20   ar
    20    20    21   ar
    21    21    22   ar
    22    22    23   ar
    23    23    24   ar
    24    24    33    1
    25    33    34   am
    26    33    35    2
    27     4    25    1
    28    25    26    1
    29    26    27    1
    30    26    28    1
    31    26    29    1
    32    29    30    1
    33    30    31    2
    34     6     2   ar
    35    15    10    1
    36    24    19   ar
    37    30     3    1
    38    21     5    1
    39    18    32    1
    40    34    36    1
    41    34    37    1
@<TRIPOS>MOLECULE
*****
 37 41 0 0 0
SMALL
GASTEIGER

@<TRIPOS>ATOM
      1 C         143.7634  139.5651  163.0878 C.3     1  UNL1        0.0323
      2 C         142.5939  140.2178  162.4122 C.ar    1  UNL1       -0.0060
      3 C         141.8397  141.4129  162.9149 C.ar    1  UNL1        0.0438
      4 C         140.7530  141.7237  161.9287 C.ar    1  UNL1        0.0435
      5 N         140.8356  140.7206  160.8165 N.ar    1  UNL1       -0.3137
      6 C         141.9733  139.7899  161.1153 C.ar    1  UNL1        0.0372
      7 C         142.8172  138.6077  160.7409 C.3     1  UNL1        0.0452
      8 C         143.1412  137.4908  159.7936 C.3     1  UNL1        0.0235
      9 C         142.8584  136.7384  158.5270 C.3     1  UNL1        0.0725
     10 N         142.0447  136.5521  157.2808 N.3     1  UNL1       -0.2724
     11 C         142.8886  135.3700  156.9064 C.3     1  UNL1        0.0721
     12 C         142.6058  134.6176  155.6400 C.3     1  UNL1        0.0174
     13 C         141.4791  135.0475  154.7479 C.3     1  UNL1        0.0029
     14 C         140.6351  136.2296  155.1223 C.3     1  UNL1        0.0177
     15 C         140.9180  136.9820  156.3888 C.3     1  UNL1        0.0753
     16 C         139.7802  137.9127  156.0900 C.3     1  UNL1        0.0838
     17 C         139.2126  137.4269  154.7893 C.3     1  UNL1        0.0226
     18 N         138.9363  139.0949  156.4644 N.pl3   1  UNL1       -0.3327
     19 C         138.6123  140.2118  157.4118 C.ar    1  UNL1        0.0504
     20 C         138.8951  140.9642  158.6783 C.ar    1  UNL1        0.0319
     21 C         139.7089  141.1504  159.9245 C.ar    1  UNL1        0.0646
     22 C         138.5697  142.1471  159.7038 C.ar    1  UNL1        0.0177
     23 C         137.5652  142.2731  158.5969 C.ar    1  UNL1        0.0072
     24 C         137.5865  141.3055  157.4509 C.ar    1  UNL1        0.0663
     25 C         139.8286  142.8800  162.1708 C.3     1  UNL1        0.0446
     26 C         139.9909  143.7255  163.3991 C.3     1  UNL1        0.0128
     27 C         139.7463  144.8097  164.4064 C.3     1  UNL1        0.0008
     28 C         138.8193  144.4128  162.7628 C.3     1  UNL1        0.0008
     29 C         141.0776  143.4148  164.3853 C.3     1  UNL1        0.0695
     30 C         142.0020  142.2585  164.1432 C.2     1  UNL1        0.1739
     31 O         143.0886  141.9478  165.1293 O.2     1  UNL1       -0.2913
     32 H         138.2770  139.1777  155.7380 H       1  UNL1        0.1468
     33 C         136.5820  141.4316  156.3441 C.2     1  UNL1        0.2439
     34 N         136.1404  142.7890  155.8832 N.am    1  UNL1       -0.3253
     35 O         136.0193  140.2004  155.6981 O.2     1  UNL1       -0.2703
     36 H         136.5098  143.5971  156.3072 H       1  UNL1        0.1453
     37 H         135.4811  142.8719  155.1568 H       1  UNL1        0.1453
@<TRIPOS>BOND
     1     1     2    1
     2     2     3   ar
     3     3     4   ar
     4     4     5   ar
     5     5     6   ar
     6     6     7    1
     7     7     8    1
     8     8     9    1
     9     9    10    1
    10    10    11    1
    11    11    12    1
    12    12    13    1
    13    13    14    1
    14    15    14    1
    15    15    16    1
    16    16    17    1
    17    16    18    1
    18    18    19    1
    19    19    20   ar
    20    20    21   ar
    21    21    22   ar
    22    22    23   ar
    23    23    24   ar
    24    24    33    1
    25    33    34   am
    26    33    35    2
    27     4    25    1
    28    25    26    1
    29    26    27    1
    30    26    28    1
    31    26    29    1
    32    29    30    1
    33    30    31    2
    34     6     2   ar
    35    15    10    1
    36    24    19   ar
    37    30     3    1
    38    21     5    1
    39    18    32    1
    40    34    36    1
    41    34    37    1
@<TRIPOS>MOLECULE
*****
 37 41 0 0 0
SMALL
GASTEIGER

@<TRIPOS>ATOM
      1 C         142.7151  136.9319  157.7667 C.3     1  UNL1        0.0323
      2 C         142.2385  138.3519  157.8461 C.ar    1  UNL1       -0.0060
      3 C         141.8135  139.2054  156.6882 C.ar    1  UNL1        0.0438
      4 C         141.4154  140.5487  157.2240 C.ar    1  UNL1        0.0435
      5 N         141.5944  140.5255  158.7131 N.ar    1  UNL1       -0.3137
      6 C         142.1030  139.1678  159.0976 C.ar    1  UNL1        0.0372
      7 C         142.5549  138.2003  160.1510 C.3     1  UNL1        0.0452
      8 C         142.8291  137.8822  161.5910 C.3     1  UNL1        0.0235
      9 C         142.8520  138.2989  163.0319 C.3     1  UNL1        0.0725
     10 N         142.6175  139.3385  164.0874 N.3     1  UNL1       -0.2724
     11 C         143.0694  138.3710  165.1407 C.3     1  UNL1        0.0721
     12 C         143.0923  138.7876  166.5815 C.3     1  UNL1        0.0174
     13 C         142.6632  140.1718  166.9689 C.3     1  UNL1        0.0029
     14 C         142.2113  141.1393  165.9155 C.3     1  UNL1        0.0177
     15 C         142.1884  140.7226  164.4747 C.3     1  UNL1        0.0753
     16 C         141.6798  142.0803  164.0902 C.3     1  UNL1        0.0838
     17 C         141.5702  142.8342  165.3823 C.3     1  UNL1        0.0226
     18 N         141.2278  143.0478  163.0367 N.pl3   1  UNL1       -0.3327
     19 C         140.9537  143.3659  161.5967 C.ar    1  UNL1        0.0504
     20 C         140.9308  142.9492  160.1559 C.ar    1  UNL1        0.0319
     21 C         141.1653  141.9096  159.1004 C.ar    1  UNL1        0.0646
     22 C         140.6462  143.2639  158.6142 C.ar    1  UNL1        0.0177
     23 C         140.3027  144.5185  159.3612 C.ar    1  UNL1        0.0072
     24 C         140.4564  144.5695  160.8524 C.ar    1  UNL1        0.0663
     25 C         140.9414  141.6197  156.2866 C.3     1  UNL1        0.0446
     26 C         140.8655  141.3472  154.8135 C.3     1  UNL1        0.0128
     27 C         140.6220  141.5680  153.3500 C.3     1  UNL1        0.0008
     28 C         140.3829  142.7672  154.8410 C.3     1  UNL1        0.0008
     29 C         141.2636  140.0039  154.2777 C.3     1  UNL1        0.0695
     30 C         141.7376  138.9330  155.2151 C.2     1  UNL1        0.1739
     31 O         142.1356  137.5897  154.6793 O.2     1  UNL1       -0.2913
     32 H         141.0024  143.8713  163.5269 H       1  UNL1        0.1468
     33 C         140.1129  145.8242  161.5993 C.2     1  UNL1        0.2439
     34 N         140.8724  146.1902  162.8400 N.am    1  UNL1       -0.3253
     35 O         139.0100  146.7128  161.1054 O.2     1  UNL1       -0.2703
     36 H         141.5962  145.6069  163.1641 H       1  UNL1        0.1453
     37 H         140.6469  147.0137  163.3302 H       1  UNL1        0.1453
@<TRIPOS>BOND
     1     1     2    1
     2     2     3   ar
     3     3     4   ar
     4     4     5   ar
     5     5     6   ar
     6     6     7    1
     7     7     8    1
     8     8     9    1
     9     9    10    1
    10    10    11    1
    11    11    12    1
    12    12    13    1
    13    13    14    1
    14    15    14    1
    15    15    16    1
    16    16    17    1
    17    16    18    1
    18    18    19    1
    19    19    20   ar
    20    20    21   ar
    21    21    22   ar
    22    22    23   ar
    23    23    24   ar
    24    24    33    1
    25    33    34   am
    26    33    35    2
    27     4    25    1
    28    25    26    1
    29    26    27    1
    30    26    28    1
    31    26    29    1
    32    29    30    1
    33    30    31    2
    34     6     2   ar
    35    15    10    1
    36    24    19   ar
    37    30     3    1
    38    21     5    1
    39    18    32    1
    40    34    36    1
    41    34    37    1
@<TRIPOS>MOLECULE
*****
 37 41 0 0 0
SMALL
GASTEIGER

@<TRIPOS>ATOM
      1 C         141.9674  144.6535  163.8054 C.3     1  UNL1        0.0323
      2 C         141.7448  143.3339  163.1278 C.ar    1  UNL1       -0.0060
      3 C         141.9451  141.9813  163.7444 C.ar    1  UNL1        0.0438
      4 C         141.6069  140.9467  162.7123 C.ar    1  UNL1        0.0435
      5 N         141.1976  141.6598  161.4578 N.ar    1  UNL1       -0.3137
      6 C         141.2828  143.1352  161.7146 C.ar    1  UNL1        0.0372
      7 C         141.1276  144.5482  161.2357 C.3     1  UNL1        0.0452
      8 C         140.7735  145.5202  160.1495 C.3     1  UNL1        0.0235
      9 C         140.3154  145.7907  158.7469 C.3     1  UNL1        0.0725
     10 N         139.8761  145.2873  157.4040 N.3     1  UNL1       -0.2724
     11 C         139.7209  146.7003  156.9251 C.3     1  UNL1        0.0721
     12 C         139.2628  146.9708  155.5226 C.3     1  UNL1        0.0174
     13 C         138.9600  145.8283  154.5990 C.3     1  UNL1        0.0029
     14 C         139.1152  144.4153  155.0779 C.3     1  UNL1        0.0177
     15 C         139.5733  144.1448  156.4804 C.3     1  UNL1        0.0753
     16 C         139.4881  142.6695  156.2236 C.3     1  UNL1        0.0838
     17 C         139.0236  142.5488  154.8025 C.3     1  UNL1        0.0226
     18 N         139.6433  141.2564  156.7026 N.pl3   1  UNL1       -0.3327
     19 C         139.9974  140.2845  157.7888 C.ar    1  UNL1        0.0504
     20 C         140.4555  140.0140  159.1913 C.ar    1  UNL1        0.0319
     21 C         140.8948  140.5174  160.5342 C.ar    1  UNL1        0.0646
     22 C         140.8382  138.9981  160.3653 C.ar    1  UNL1        0.0177
     23 C         140.4540  138.1461  159.1920 C.ar    1  UNL1        0.0072
     24 C         140.0336  138.7893  157.9037 C.ar    1  UNL1        0.0663
     25 C         141.7154  139.4887  163.0483 C.3     1  UNL1        0.0446
     26 C         142.1620  139.0655  164.4162 C.3     1  UNL1        0.0128
     27 C         142.5363  138.1756  165.5642 C.3     1  UNL1        0.0008
     28 C         141.9538  137.7218  163.7829 C.3     1  UNL1        0.0008
     29 C         142.5002  140.1001  165.4483 C.3     1  UNL1        0.0695
     30 C         142.3917  141.5580  165.1124 C.2     1  UNL1        0.1739
     31 O         142.7299  142.5926  166.1445 O.2     1  UNL1       -0.2913
     32 H         139.3912  140.6972  155.9325 H       1  UNL1        0.1468
     33 C         139.6495  137.9373  156.7305 C.2     1  UNL1        0.2439
     34 N         140.4081  136.6766  156.4388 N.am    1  UNL1       -0.3253
     35 O         138.5067  138.3461  155.8490 O.2     1  UNL1       -0.2703
     36 H         141.1581  136.4084  157.0174 H       1  UNL1        0.1453
     37 H         140.1560  136.1174  155.6687 H       1  UNL1        0.1453
@<TRIPOS>BOND
     1     1     2    1
     2     2     3   ar
     3     3     4   ar
     4     4     5   ar
     5     5     6   ar
     6     6     7    1
     7     7     8    1
     8     8     9    1
     9     9    10    1
    10    10    11    1
    11    11    12    1
    12    12    13    1
    13    13    14    1
    14    15    14    1
    15    15    16    1
    16    16    17    1
    17    16    18    1
    18    18    19    1
    19    19    20   ar
    20    20    21   ar
    21    21    22   ar
    22    22    23   ar
    23    23    24   ar
    24    24    33    1
    25    33    34   am
    26    33    35    2
    27     4    25    1
    28    25    26    1
    29    26    27    1
    30    26    28    1
    31    26    29    1
    32    29    30    1
    33    30    31    2
    34     6     2   ar
    35    15    10    1
    36    24    19   ar
    37    30     3    1
    38    21     5    1
    39    18    32    1
    40    34    36    1
    41    34    37    1
