@<TRIPOS>MOLECULE
*****
 37 41 0 0 0
SMALL
GASTEIGER

@<TRIPOS>ATOM
      1 N         142.4994  139.4644  163.1740 N.3     1  UNL1       -0.2679
      2 C         143.1904  140.7618  162.8755 C.3     1  UNL1        0.0978
      3 C         144.4884  140.7647  162.1239 C.3     1  UNL1        0.0224
      4 C         145.1794  142.0621  161.8254 C.3     1  UNL1        0.0065
      5 C         144.5723  143.3568  162.2785 C.3     1  UNL1        0.0277
      6 C         143.2743  143.3539  163.0301 C.ar    1  UNL1       -0.0073
      7 C         142.6672  144.6486  163.4833 C.ar    1  UNL1       -0.0015
      8 C         141.3691  144.6457  164.2349 C.ar    1  UNL1        0.0203
      9 C         140.6781  143.3483  164.5334 C.ar    1  UNL1        0.0985
     10 N         141.2852  142.0537  164.0803 N.ar    1  UNL1       -0.2471
     11 C         142.5833  142.0564  163.3286 C.ar    1  UNL1        0.0695
     12 C         141.5402  138.8795  162.1802 C.3     1  UNL1        0.0725
     13 C         140.7775  137.6328  162.5181 C.3     1  UNL1        0.0188
     14 C         139.3556  137.7272  162.9864 C.3     1  UNL1        0.0188
     15 C         138.2690  138.0872  162.0171 C.3     1  UNL1        0.0721
     16 C         138.6665  139.3323  159.7716 C.3     1  UNL1        0.0896
     17 N         138.3525  139.3663  161.2380 N.3     1  UNL1       -0.2728
     18 C         138.1219  140.6795  161.9254 C.3     1  UNL1        0.0579
     19 C         138.3107  141.9632  161.1729 C.3     1  UNL1        0.0216
     20 C         138.0802  143.2764  161.8602 C.3     1  UNL1        0.0679
     21 C         137.6609  143.3058  163.3001 C.3     1  UNL1        0.2640
     22 F         137.2586  143.8462  164.6403 F       1  UNL1       -0.2043
     23 F         137.7099  144.7773  163.0130 F       1  UNL1       -0.2043
     24 C         137.4720  142.0220  164.0527 C.3     1  UNL1        0.0679
     25 C         137.7026  140.7088  163.3653 C.3     1  UNL1        0.0216
     26 C         142.7676  138.7518  164.4664 C.3     1  UNL1        0.0886
     27 C         142.0849  139.1987  165.7251 C.3     1  UNL1        0.0764
     28 C         142.8644  139.3116  167.0016 C.3     1  UNL1        0.0626
     29 C         142.1816  139.7586  168.2603 C.ar    1  UNL1        0.0577
     30 N         142.9611  139.8715  169.5368 N.ar    1  UNL1       -0.2484
     31 C         142.2784  140.3184  170.7954 C.ar    1  UNL1        0.0984
     32 C         140.8162  140.6524  170.7774 C.ar    1  UNL1        0.0204
     33 C         140.0367  140.5395  169.5009 C.ar    1  UNL1       -0.0002
     34 C         140.7194  140.0926  168.2423 C.ar    1  UNL1        0.0073
     35 C         139.9399  139.9796  166.9657 C.3     1  UNL1        0.0968
     36 N         140.6227  139.5327  165.7071 N.3     1  UNL1       -0.2934
     37 H         140.4997  140.2802  165.0241 H       1  UNL1        0.1236
@<TRIPOS>BOND
     1    16    17    1
     2    17    15    1
     3    15    14    1
     4    14    13    1
     5    13    12    1
     6    12     1    1
     7     1    26    1
     8    27    26    1
     9    27    28    1
    10    28    29    1
    11    29    30   ar
    12    30    31   ar
    13    31    32   ar
    14    32    33   ar
    15    33    34   ar
    16    34    35    1
    17    35    36    1
    18     2     1    1
    19     2     3    1
    20     3     4    1
    21     4     5    1
    22     5     6    1
    23     6     7   ar
    24     7     8   ar
    25     8     9   ar
    26     9    10   ar
    27    10    11   ar
    28    17    18    1
    29    18    19    1
    30    19    20    1
    31    20    21    1
    32    21    22    1
    33    21    23    1
    34    21    24    1
    35    24    25    1
    36    36    27    1
    37    11     2    1
    38    25    18    1
    39    34    29   ar
    40    11     6   ar
    41    36    37    1
@<TRIPOS>MOLECULE
*****
 37 41 0 0 0
SMALL
GASTEIGER

@<TRIPOS>ATOM
      1 N         140.1424  139.5248  163.9662 N.3     1  UNL1       -0.2679
      2 C         141.4251  139.3078  163.2196 C.3     1  UNL1        0.0978
      3 C         141.4993  138.2660  162.1430 C.3     1  UNL1        0.0224
      4 C         142.7820  138.0489  161.3964 C.3     1  UNL1        0.0065
      5 C         143.9906  138.8737  161.7263 C.3     1  UNL1        0.0277
      6 C         143.9165  139.9155  162.8029 C.ar    1  UNL1       -0.0073
      7 C         145.1252  140.7404  163.1328 C.ar    1  UNL1       -0.0015
      8 C         145.0511  141.7822  164.2094 C.ar    1  UNL1        0.0203
      9 C         143.7684  141.9992  164.9560 C.ar    1  UNL1        0.0985
     10 N         142.5597  141.1745  164.6261 N.ar    1  UNL1       -0.2471
     11 C         142.6338  140.1326  163.5495 C.ar    1  UNL1        0.0695
     12 C         139.0790  140.4110  163.3884 C.3     1  UNL1        0.0725
     13 C         138.4367  141.4653  164.2405 C.3     1  UNL1        0.0188
     14 C         137.4538  142.4230  163.6350 C.3     1  UNL1        0.0188
     15 C         137.9434  143.6045  162.8512 C.3     1  UNL1        0.0721
     16 C         138.7540  142.8367  160.5053 C.3     1  UNL1        0.0896
     17 N         139.0468  143.4348  161.8493 N.3     1  UNL1       -0.2728
     18 C         140.4429  143.8633  162.1915 C.3     1  UNL1        0.0579
     19 C         141.6066  143.3110  161.4230 C.3     1  UNL1        0.0216
     20 C         143.0028  143.7395  161.7652 C.3     1  UNL1        0.0679
     21 C         143.2353  144.7204  162.8759 C.3     1  UNL1        0.2640
     22 F         143.9592  145.6176  163.8355 F       1  UNL1       -0.2043
     23 F         144.6504  144.4796  162.4406 F       1  UNL1       -0.2043
     24 C         142.0716  145.2728  163.6445 C.3     1  UNL1        0.0679
     25 C         140.6754  144.8443  163.3023 C.3     1  UNL1        0.0216
     26 C         139.9231  138.8557  165.2906 C.3     1  UNL1        0.0886
     27 C         140.6006  139.3851  166.5198 C.3     1  UNL1        0.0764
     28 C         139.8420  140.2536  167.4791 C.3     1  UNL1        0.0626
     29 C         140.5196  140.7830  168.7083 C.ar    1  UNL1        0.0577
     30 N         139.7610  141.6515  169.6676 N.ar    1  UNL1       -0.2484
     31 C         140.4386  142.1808  170.8967 C.ar    1  UNL1        0.0984
     32 C         141.8746  141.8418  171.1664 C.ar    1  UNL1        0.0204
     33 C         142.6332  140.9733  170.2071 C.ar    1  UNL1       -0.0002
     34 C         141.9556  140.4440  168.9780 C.ar    1  UNL1        0.0073
     35 C         142.7142  139.5755  168.0186 C.3     1  UNL1        0.0968
     36 N         142.0366  139.0461  166.7895 N.3     1  UNL1       -0.2934
     37 H         142.0953  138.0288  166.8360 H       1  UNL1        0.1236
@<TRIPOS>BOND
     1    16    17    1
     2    17    15    1
     3    15    14    1
     4    14    13    1
     5    13    12    1
     6    12     1    1
     7     1    26    1
     8    27    26    1
     9    27    28    1
    10    28    29    1
    11    29    30   ar
    12    30    31   ar
    13    31    32   ar
    14    32    33   ar
    15    33    34   ar
    16    34    35    1
    17    35    36    1
    18     2     1    1
    19     2     3    1
    20     3     4    1
    21     4     5    1
    22     5     6    1
    23     6     7   ar
    24     7     8   ar
    25     8     9   ar
    26     9    10   ar
    27    10    11   ar
    28    17    18    1
    29    18    19    1
    30    19    20    1
    31    20    21    1
    32    21    22    1
    33    21    23    1
    34    21    24    1
    35    24    25    1
    36    36    27    1
    37    11     2    1
    38    25    18    1
    39    34    29   ar
    40    11     6   ar
    41    36    37    1
@<TRIPOS>MOLECULE
*****
 37 41 0 0 0
SMALL
GASTEIGER

@<TRIPOS>ATOM
      1 N         139.8805  140.1485  165.7220 N.3     1  UNL1       -0.2679
      2 C         140.9595  140.8487  166.4937 C.3     1  UNL1        0.0978
      3 C         142.0970  141.5031  165.7672 C.3     1  UNL1        0.0224
      4 C         143.1760  142.2033  166.5389 C.3     1  UNL1        0.0065
      5 C         143.1175  142.2491  168.0371 C.3     1  UNL1        0.0277
      6 C         141.9800  141.5947  168.7635 C.ar    1  UNL1       -0.0073
      7 C         141.9214  141.6404  170.2617 C.ar    1  UNL1       -0.0015
      8 C         140.7839  140.9860  170.9881 C.ar    1  UNL1        0.0203
      9 C         139.7050  140.2858  170.2165 C.ar    1  UNL1        0.0985
     10 N         139.7635  140.2400  168.7183 N.ar    1  UNL1       -0.2471
     11 C         140.9010  140.8945  167.9918 C.ar    1  UNL1        0.0695
     12 C         139.9563  138.6665  165.5029 C.3     1  UNL1        0.0725
     13 C         141.2124  138.0518  164.9603 C.3     1  UNL1        0.0188
     14 C         141.1679  137.2482  163.6945 C.3     1  UNL1        0.0188
     15 C         141.1520  137.9430  162.3653 C.3     1  UNL1        0.0721
     16 C         142.9540  137.5702  160.5312 C.3     1  UNL1        0.0896
     17 N         142.4421  138.3412  161.7116 N.3     1  UNL1       -0.2728
     18 C         143.2201  139.5104  162.2384 C.3     1  UNL1        0.0579
     19 C         142.8826  140.9005  161.7872 C.3     1  UNL1        0.0216
     20 C         143.6607  142.0697  162.3140 C.3     1  UNL1        0.0679
     21 C         144.7763  141.8488  163.2921 C.3     1  UNL1        0.2640
     22 F         145.9116  142.1467  164.2261 F       1  UNL1       -0.2043
     23 F         144.8330  143.3424  163.1652 F       1  UNL1       -0.2043
     24 C         145.1138  140.4587  163.7434 C.3     1  UNL1        0.0679
     25 C         144.3358  139.2895  163.2165 C.3     1  UNL1        0.0216
     26 C         138.7258  140.9302  165.1694 C.3     1  UNL1        0.0886
     27 C         138.9767  142.1714  164.3652 C.3     1  UNL1        0.0764
     28 C         139.4661  142.0629  162.9515 C.3     1  UNL1        0.0626
     29 C         139.7170  143.3041  162.1473 C.ar    1  UNL1        0.0577
     30 N         140.2064  143.1957  160.7336 N.ar    1  UNL1       -0.2484
     31 C         140.4572  144.4368  159.9295 C.ar    1  UNL1        0.0984
     32 C         140.2186  145.7864  160.5391 C.ar    1  UNL1        0.0204
     33 C         139.7292  145.8949  161.9528 C.ar    1  UNL1       -0.0002
     34 C         139.4784  144.6537  162.7569 C.ar    1  UNL1        0.0073
     35 C         138.9889  144.7621  164.1707 C.3     1  UNL1        0.0968
     36 N         138.7381  143.5210  164.9748 N.3     1  UNL1       -0.2934
     37 H         137.7587  143.5469  165.2586 H       1  UNL1        0.1236
@<TRIPOS>BOND
     1    16    17    1
     2    17    15    1
     3    15    14    1
     4    14    13    1
     5    13    12    1
     6    12     1    1
     7     1    26    1
     8    27    26    1
     9    27    28    1
    10    28    29    1
    11    29    30   ar
    12    30    31   ar
    13    31    32   ar
    14    32    33   ar
    15    33    34   ar
    16    34    35    1
    17    35    36    1
    18     2     1    1
    19     2     3    1
    20     3     4    1
    21     4     5    1
    22     5     6    1
    23     6     7   ar
    24     7     8   ar
    25     8     9   ar
    26     9    10   ar
    27    10    11   ar
    28    17    18    1
    29    18    19    1
    30    19    20    1
    31    20    21    1
    32    21    22    1
    33    21    23    1
    34    21    24    1
    35    24    25    1
    36    36    27    1
    37    11     2    1
    38    25    18    1
    39    34    29   ar
    40    11     6   ar
    41    36    37    1
@<TRIPOS>MOLECULE
*****
 37 41 0 0 0
SMALL
GASTEIGER

@<TRIPOS>ATOM
      1 N         138.4710  140.1740  164.2188 N.3     1  UNL1       -0.2679
      2 C         138.7535  141.6461  164.2743 C.3     1  UNL1        0.0978
      3 C         137.6283  142.6191  164.4666 C.3     1  UNL1        0.0224
      4 C         137.9109  144.0912  164.5221 C.3     1  UNL1        0.0065
      5 C         139.3187  144.5903  164.3854 C.3     1  UNL1        0.0277
      6 C         140.4440  143.6173  164.1931 C.ar    1  UNL1       -0.0073
      7 C         141.8520  144.1164  164.0564 C.ar    1  UNL1       -0.0015
      8 C         142.9772  143.1434  163.8641 C.ar    1  UNL1        0.0203
      9 C         142.6947  141.6713  163.8086 C.ar    1  UNL1        0.0985
     10 N         141.2868  141.1722  163.9454 N.ar    1  UNL1       -0.2471
     11 C         140.1614  142.1452  164.1376 C.ar    1  UNL1        0.0695
     12 C         138.2061  139.5104  162.9000 C.3     1  UNL1        0.0725
     13 C         139.2263  138.5830  162.3087 C.3     1  UNL1        0.0188
     14 C         139.1105  138.1564  160.8754 C.3     1  UNL1        0.0188
     15 C         139.8529  138.9043  159.8080 C.3     1  UNL1        0.0721
     16 C         142.3780  139.0596  160.3998 C.3     1  UNL1        0.0896
     17 N         141.0550  139.7269  160.1665 N.3     1  UNL1       -0.2728
     18 C         140.9340  141.2168  160.2916 C.3     1  UNL1        0.0579
     19 C         139.5889  141.8445  160.5072 C.3     1  UNL1        0.0216
     20 C         139.4679  143.3344  160.6324 C.3     1  UNL1        0.0679
     21 C         140.6921  144.1965  160.5419 C.3     1  UNL1        0.2640
     22 F         141.5529  145.4248  160.5241 F       1  UNL1       -0.2043
     23 F         139.6459  145.2509  160.7514 F       1  UNL1       -0.2043
     24 C         142.0373  143.5687  160.3263 C.3     1  UNL1        0.0679
     25 C         142.1582  142.0789  160.2011 C.3     1  UNL1        0.0216
     26 C         138.4532  139.3656  165.4822 C.3     1  UNL1        0.0886
     27 C         139.5159  139.5730  166.5204 C.3     1  UNL1        0.0764
     28 C         139.1396  140.0358  167.8966 C.3     1  UNL1        0.0626
     29 C         140.2023  140.2432  168.9348 C.ar    1  UNL1        0.0577
     30 N         139.8260  140.7060  170.3111 N.ar    1  UNL1       -0.2484
     31 C         140.8887  140.9134  171.3492 C.ar    1  UNL1        0.0984
     32 C         142.3276  140.6580  171.0111 C.ar    1  UNL1        0.0204
     33 C         142.7038  140.1951  169.6348 C.ar    1  UNL1       -0.0002
     34 C         141.6412  139.9878  168.5967 C.ar    1  UNL1        0.0073
     35 C         142.0174  139.5249  167.2203 C.3     1  UNL1        0.0968
     36 N         140.9547  139.3175  166.1822 N.3     1  UNL1       -0.2934
     37 H         141.0191  138.3438  165.8854 H       1  UNL1        0.1236
@<TRIPOS>BOND
     1    16    17    1
     2    17    15    1
     3    15    14    1
     4    14    13    1
     5    13    12    1
     6    12     1    1
     7     1    26    1
     8    27    26    1
     9    27    28    1
    10    28    29    1
    11    29    30   ar
    12    30    31   ar
    13    31    32   ar
    14    32    33   ar
    15    33    34   ar
    16    34    35    1
    17    35    36    1
    18     2     1    1
    19     2     3    1
    20     3     4    1
    21     4     5    1
    22     5     6    1
    23     6     7   ar
    24     7     8   ar
    25     8     9   ar
    26     9    10   ar
    27    10    11   ar
    28    17    18    1
    29    18    19    1
    30    19    20    1
    31    20    21    1
    32    21    22    1
    33    21    23    1
    34    21    24    1
    35    24    25    1
    36    36    27    1
    37    11     2    1
    38    25    18    1
    39    34    29   ar
    40    11     6   ar
    41    36    37    1
@<TRIPOS>MOLECULE
*****
 37 41 0 0 0
SMALL
GASTEIGER

@<TRIPOS>ATOM
      1 N         140.1836  142.6367  163.1278 N.3     1  UNL1       -0.2679
      2 C         141.5155  143.2440  163.4552 C.3     1  UNL1        0.0978
      3 C         141.6535  144.7333  163.5673 C.3     1  UNL1        0.0224
      4 C         142.9854  145.3406  163.8946 C.3     1  UNL1        0.0065
      5 C         144.1793  144.4585  164.1099 C.3     1  UNL1        0.0277
      6 C         144.0413  142.9692  163.9978 C.ar    1  UNL1       -0.0073
      7 C         145.2353  142.0870  164.2131 C.ar    1  UNL1       -0.0015
      8 C         145.0973  140.5976  164.1010 C.ar    1  UNL1        0.0203
      9 C         143.7654  139.9903  163.7737 C.ar    1  UNL1        0.0985
     10 N         142.5714  140.8724  163.5584 N.ar    1  UNL1       -0.2471
     11 C         142.7094  142.3619  163.6705 C.ar    1  UNL1        0.0695
     12 C         139.9103  142.1301  161.7426 C.3     1  UNL1        0.0725
     13 C         138.4989  142.0349  161.2436 C.3     1  UNL1        0.0188
     14 C         138.2193  141.4480  159.8918 C.3     1  UNL1        0.0188
     15 C         137.9666  139.9762  159.7510 C.3     1  UNL1        0.0721
     16 C         139.8621  138.5819  158.6495 C.3     1  UNL1        0.0896
     17 N         139.1034  139.0050  159.8723 N.3     1  UNL1       -0.2728
     18 C         139.4814  138.4569  161.2164 C.3     1  UNL1        0.0579
     19 C         140.8981  138.0453  161.4872 C.3     1  UNL1        0.0216
     20 C         141.2762  137.4973  162.8313 C.3     1  UNL1        0.0679
     21 C         140.2374  137.3608  163.9048 C.3     1  UNL1        0.2640
     22 F         139.6157  137.0431  165.2324 F       1  UNL1       -0.2043
     23 F         141.4383  136.8389  164.6366 F       1  UNL1       -0.2043
     24 C         138.8205  137.7724  163.6341 C.3     1  UNL1        0.0679
     25 C         138.4425  138.3205  162.2899 C.3     1  UNL1        0.0216
     26 C         139.1248  142.5359  164.1855 C.3     1  UNL1        0.0886
     27 C         139.4462  141.9122  165.5114 C.3     1  UNL1        0.0764
     28 C         140.1083  142.7270  166.5827 C.3     1  UNL1        0.0626
     29 C         140.4296  142.1034  167.9086 C.ar    1  UNL1        0.0577
     30 N         141.0917  142.9182  168.9799 N.ar    1  UNL1       -0.2484
     31 C         141.4130  142.2945  170.3057 C.ar    1  UNL1        0.0984
     32 C         141.0723  140.8560  170.5601 C.ar    1  UNL1        0.0204
     33 C         140.4103  140.0412  169.4888 C.ar    1  UNL1       -0.0002
     34 C         140.0889  140.6649  168.1630 C.ar    1  UNL1        0.0073
     35 C         139.4269  139.8501  167.0916 C.3     1  UNL1        0.0968
     36 N         139.1055  140.4738  165.7659 N.3     1  UNL1       -0.2934
     37 H         138.0983  140.3819  165.6336 H       1  UNL1        0.1236
@<TRIPOS>BOND
     1    16    17    1
     2    17    15    1
     3    15    14    1
     4    14    13    1
     5    13    12    1
     6    12     1    1
     7     1    26    1
     8    27    26    1
     9    27    28    1
    10    28    29    1
    11    29    30   ar
    12    30    31   ar
    13    31    32   ar
    14    32    33   ar
    15    33    34   ar
    16    34    35    1
    17    35    36    1
    18     2     1    1
    19     2     3    1
    20     3     4    1
    21     4     5    1
    22     5     6    1
    23     6     7   ar
    24     7     8   ar
    25     8     9   ar
    26     9    10   ar
    27    10    11   ar
    28    17    18    1
    29    18    19    1
    30    19    20    1
    31    20    21    1
    32    21    22    1
    33    21    23    1
    34    21    24    1
    35    24    25    1
    36    36    27    1
    37    11     2    1
    38    25    18    1
    39    34    29   ar
    40    11     6   ar
    41    36    37    1
@<TRIPOS>MOLECULE
*****
 37 41 0 0 0
SMALL
GASTEIGER

@<TRIPOS>ATOM
      1 N         140.4011  139.0501  163.8735 N.3     1  UNL1       -0.2679
      2 C         141.8452  139.1434  164.2685 C.3     1  UNL1        0.0978
      3 C         142.3814  138.2690  165.3630 C.3     1  UNL1        0.0224
      4 C         143.8254  138.3623  165.7579 C.3     1  UNL1        0.0065
      5 C         144.7333  139.3299  165.0584 C.3     1  UNL1        0.0277
      6 C         144.1971  140.2043  163.9639 C.ar    1  UNL1       -0.0073
      7 C         145.1050  141.1720  163.2643 C.ar    1  UNL1       -0.0015
      8 C         144.5688  142.0464  162.1698 C.ar    1  UNL1        0.0203
      9 C         143.1248  141.9531  161.7748 C.ar    1  UNL1        0.0985
     10 N         142.2169  140.9854  162.4744 N.ar    1  UNL1       -0.2471
     11 C         142.7530  140.1110  163.5689 C.ar    1  UNL1        0.0695
     12 C         139.9989  138.2177  162.6923 C.3     1  UNL1        0.0725
     13 C         138.5801  138.2417  162.2061 C.3     1  UNL1        0.0188
     14 C         138.1518  139.2608  161.1922 C.3     1  UNL1        0.0188
     15 C         139.1472  140.2430  160.6496 C.3     1  UNL1        0.0721
     16 C         138.4964  142.2668  159.1560 C.3     1  UNL1        0.0896
     17 N         138.7751  141.6896  160.5121 N.3     1  UNL1       -0.2728
     18 C         138.6816  142.5590  161.7309 C.3     1  UNL1        0.0579
     19 C         139.7250  143.6056  161.9874 C.3     1  UNL1        0.0216
     20 C         139.6315  144.4750  163.2062 C.3     1  UNL1        0.0679
     21 C         138.4946  144.2979  164.1684 C.3     1  UNL1        0.2640
     22 F         137.6137  144.5097  165.3640 F       1  UNL1       -0.2043
     23 F         139.2322  145.4180  164.8402 F       1  UNL1       -0.2043
     24 C         137.4511  143.2512  163.9119 C.3     1  UNL1        0.0679
     25 C         137.5445  142.3818  162.6932 C.3     1  UNL1        0.0216
     26 C         139.3593  139.7892  164.6597 C.3     1  UNL1        0.0886
     27 C         139.7454  140.5307  165.9052 C.3     1  UNL1        0.0764
     28 C         139.7168  139.8330  167.2327 C.3     1  UNL1        0.0626
     29 C         140.1029  140.5745  168.4782 C.ar    1  UNL1        0.0577
     30 N         140.0744  139.8768  169.8057 N.ar    1  UNL1       -0.2484
     31 C         140.4605  140.6182  171.0511 C.ar    1  UNL1        0.0984
     32 C         140.8751  142.0575  170.9690 C.ar    1  UNL1        0.0204
     33 C         140.9037  142.7552  169.6415 C.ar    1  UNL1       -0.0002
     34 C         140.5176  142.0137  168.3961 C.ar    1  UNL1        0.0073
     35 C         140.5461  142.7114  167.0685 C.3     1  UNL1        0.0968
     36 N         140.1600  141.9699  165.8231 N.3     1  UNL1       -0.2934
     37 H         140.9633  142.0096  165.1958 H       1  UNL1        0.1236
@<TRIPOS>BOND
     1    16    17    1
     2    17    15    1
     3    15    14    1
     4    14    13    1
     5    13    12    1
     6    12     1    1
     7     1    26    1
     8    27    26    1
     9    27    28    1
    10    28    29    1
    11    29    30   ar
    12    30    31   ar
    13    31    32   ar
    14    32    33   ar
    15    33    34   ar
    16    34    35    1
    17    35    36    1
    18     2     1    1
    19     2     3    1
    20     3     4    1
    21     4     5    1
    22     5     6    1
    23     6     7   ar
    24     7     8   ar
    25     8     9   ar
    26     9    10   ar
    27    10    11   ar
    28    17    18    1
    29    18    19    1
    30    19    20    1
    31    20    21    1
    32    21    22    1
    33    21    23    1
    34    21    24    1
    35    24    25    1
    36    36    27    1
    37    11     2    1
    38    25    18    1
    39    34    29   ar
    40    11     6   ar
    41    36    37    1
@<TRIPOS>MOLECULE
*****
 37 41 0 0 0
SMALL
GASTEIGER

@<TRIPOS>ATOM
      1 N         140.1074  142.4017  163.5514 N.3     1  UNL1       -0.2679
      2 C         139.7507  141.1235  162.8521 C.3     1  UNL1        0.0978
      3 C         138.7865  141.1410  161.7032 C.3     1  UNL1        0.0224
      4 C         138.4298  139.8629  161.0039 C.3     1  UNL1        0.0065
      5 C         139.0372  138.5672  161.4535 C.3     1  UNL1        0.0277
      6 C         140.0014  138.5497  162.6023 C.ar    1  UNL1       -0.0073
      7 C         140.6089  137.2540  163.0520 C.ar    1  UNL1       -0.0015
      8 C         141.5731  137.2364  164.2009 C.ar    1  UNL1        0.0203
      9 C         141.9299  138.5146  164.9002 C.ar    1  UNL1        0.0985
     10 N         141.3224  139.8103  164.4506 N.ar    1  UNL1       -0.2471
     11 C         140.3581  139.8279  163.3017 C.ar    1  UNL1        0.0695
     12 C         141.2015  143.2730  163.0094 C.3     1  UNL1        0.0725
     13 C         142.0521  144.0788  163.9461 C.3     1  UNL1        0.0188
     14 C         143.5444  144.0750  163.7953 C.3     1  UNL1        0.0188
     15 C         144.1811  143.3369  162.6553 C.3     1  UNL1        0.0721
     16 C         145.7476  141.6342  163.8372 C.3     1  UNL1        0.0896
     17 N         144.6594  141.9282  162.8477 N.3     1  UNL1       -0.2728
     18 C         144.0493  140.8136  162.0505 C.3     1  UNL1        0.0579
     19 C         143.0596  141.1214  160.9663 C.3     1  UNL1        0.0216
     20 C         142.4496  140.0068  160.1691 C.3     1  UNL1        0.0679
     21 C         142.8293  138.5843  160.4562 C.3     1  UNL1        0.2640
     22 F         142.8701  137.0883  160.3545 F       1  UNL1       -0.2043
     23 F         141.8537  138.3726  159.3366 F       1  UNL1       -0.2043
     24 C         143.8190  138.2764  161.5405 C.3     1  UNL1        0.0679
     25 C         144.4291  139.3911  162.3377 C.3     1  UNL1        0.0216
     26 C         139.3701  142.8085  164.7927 C.3     1  UNL1        0.0886
     27 C         139.6761  142.1397  166.1000 C.3     1  UNL1        0.0764
     28 C         140.4832  142.8590  167.1397 C.3     1  UNL1        0.0626
     29 C         140.7892  142.1902  168.4470 C.ar    1  UNL1        0.0577
     30 N         141.5964  142.9095  169.4867 N.ar    1  UNL1       -0.2484
     31 C         141.9023  142.2407  170.7939 C.ar    1  UNL1        0.0984
     32 C         141.4011  140.8524  171.0615 C.ar    1  UNL1        0.0204
     33 C         140.5940  140.1331  170.0219 C.ar    1  UNL1       -0.0002
     34 C         140.2880  140.8019  168.7146 C.ar    1  UNL1        0.0073
     35 C         139.4808  140.0826  167.6748 C.3     1  UNL1        0.0968
     36 N         139.1749  140.7514  166.3676 N.3     1  UNL1       -0.2934
     37 H         138.1588  140.7841  166.2842 H       1  UNL1        0.1236
@<TRIPOS>BOND
     1    16    17    1
     2    17    15    1
     3    15    14    1
     4    14    13    1
     5    13    12    1
     6    12     1    1
     7     1    26    1
     8    27    26    1
     9    27    28    1
    10    28    29    1
    11    29    30   ar
    12    30    31   ar
    13    31    32   ar
    14    32    33   ar
    15    33    34   ar
    16    34    35    1
    17    35    36    1
    18     2     1    1
    19     2     3    1
    20     3     4    1
    21     4     5    1
    22     5     6    1
    23     6     7   ar
    24     7     8   ar
    25     8     9   ar
    26     9    10   ar
    27    10    11   ar
    28    17    18    1
    29    18    19    1
    30    19    20    1
    31    20    21    1
    32    21    22    1
    33    21    23    1
    34    21    24    1
    35    24    25    1
    36    36    27    1
    37    11     2    1
    38    25    18    1
    39    34    29   ar
    40    11     6   ar
    41    36    37    1
@<TRIPOS>MOLECULE
*****
 37 41 0 0 0
SMALL
GASTEIGER

@<TRIPOS>ATOM
      1 N         142.8937  138.8085  162.8143 N.3     1  UNL1       -0.2679
      2 C         143.0589  139.7269  161.6399 C.3     1  UNL1        0.0978
      3 C         143.8019  139.2617  160.4227 C.3     1  UNL1        0.0224
      4 C         143.9672  140.1802  159.2483 C.3     1  UNL1        0.0065
      5 C         143.3895  141.5638  159.2911 C.3     1  UNL1        0.0277
      6 C         142.6465  142.0289  160.5083 C.ar    1  UNL1       -0.0073
      7 C         142.0687  143.4126  160.5512 C.ar    1  UNL1       -0.0015
      8 C         141.3258  143.8777  161.7684 C.ar    1  UNL1        0.0203
      9 C         141.1605  142.9593  162.9427 C.ar    1  UNL1        0.0985
     10 N         141.7382  141.5757  162.8999 N.ar    1  UNL1       -0.2471
     11 C         142.4812  141.1105  161.6827 C.ar    1  UNL1        0.0695
     12 C         141.7509  137.8376  162.8522 C.3     1  UNL1        0.0725
     13 C         141.2066  137.3709  164.1698 C.3     1  UNL1        0.0188
     14 C         140.1294  138.1567  164.8569 C.3     1  UNL1        0.0188
     15 C         138.7176  138.0925  164.3542 C.3     1  UNL1        0.0721
     16 C         138.1017  138.1961  161.8323 C.3     1  UNL1        0.0896
     17 N         138.3145  138.8863  163.1469 N.3     1  UNL1       -0.2728
     18 C         138.1243  140.3703  163.2543 C.3     1  UNL1        0.0579
     19 C         138.0812  141.0252  164.6030 C.3     1  UNL1        0.0216
     20 C         137.8909  142.5092  164.7104 C.3     1  UNL1        0.0679
     21 C         137.7438  143.3383  163.4691 C.3     1  UNL1        0.2640
     22 F         137.5595  144.5398  162.5901 F       1  UNL1       -0.2043
     23 F         137.6367  144.4105  164.5126 F       1  UNL1       -0.2043
     24 C         137.7870  142.6834  162.1202 C.3     1  UNL1        0.0679
     25 C         137.9772  141.1994  162.0129 C.3     1  UNL1        0.0216
     26 C         143.8712  138.8609  163.9508 C.3     1  UNL1        0.0886
     27 C         143.5666  139.6880  165.1646 C.3     1  UNL1        0.0764
     28 C         143.2637  139.0180  166.4720 C.3     1  UNL1        0.0626
     29 C         142.9591  139.8451  167.6858 C.ar    1  UNL1        0.0577
     30 N         142.6563  139.1751  168.9932 N.ar    1  UNL1       -0.2484
     31 C         142.3517  140.0022  170.2069 C.ar    1  UNL1        0.0984
     32 C         142.3499  141.4993  170.1131 C.ar    1  UNL1        0.0204
     33 C         142.6527  142.1692  168.8057 C.ar    1  UNL1       -0.0002
     34 C         142.9573  141.3421  167.5920 C.ar    1  UNL1        0.0073
     35 C         143.2602  142.0121  166.2845 C.3     1  UNL1        0.0968
     36 N         143.5648  141.1850  165.0708 N.3     1  UNL1       -0.2934
     37 H         144.4934  141.4612  164.7518 H       1  UNL1        0.1236
@<TRIPOS>BOND
     1    16    17    1
     2    17    15    1
     3    15    14    1
     4    14    13    1
     5    13    12    1
     6    12     1    1
     7     1    26    1
     8    27    26    1
     9    27    28    1
    10    28    29    1
    11    29    30   ar
    12    30    31   ar
    13    31    32   ar
    14    32    33   ar
    15    33    34   ar
    16    34    35    1
    17    35    36    1
    18     2     1    1
    19     2     3    1
    20     3     4    1
    21     4     5    1
    22     5     6    1
    23     6     7   ar
    24     7     8   ar
    25     8     9   ar
    26     9    10   ar
    27    10    11   ar
    28    17    18    1
    29    18    19    1
    30    19    20    1
    31    20    21    1
    32    21    22    1
    33    21    23    1
    34    21    24    1
    35    24    25    1
    36    36    27    1
    37    11     2    1
    38    25    18    1
    39    34    29   ar
    40    11     6   ar
    41    36    37    1
@<TRIPOS>MOLECULE
*****
 37 41 0 0 0
SMALL
GASTEIGER

@<TRIPOS>ATOM
      1 N         142.1524  143.0810  162.1448 N.3     1  UNL1       -0.2679
      2 C         140.9408  143.0200  163.0271 C.3     1  UNL1        0.0978
      3 C         140.8133  143.9566  164.1918 C.3     1  UNL1        0.0224
      4 C         139.6018  143.8957  165.0741 C.3     1  UNL1        0.0065
      5 C         138.5177  142.8982  164.7917 C.3     1  UNL1        0.0277
      6 C         138.6452  141.9616  163.6270 C.ar    1  UNL1       -0.0073
      7 C         137.5611  140.9641  163.3445 C.ar    1  UNL1       -0.0015
      8 C         137.6886  140.0275  162.1798 C.ar    1  UNL1        0.0203
      9 C         138.9002  140.0885  161.2975 C.ar    1  UNL1        0.0985
     10 N         139.9843  141.0859  161.5799 N.ar    1  UNL1       -0.2471
     11 C         139.8568  142.0226  162.7447 C.ar    1  UNL1        0.0695
     12 C         143.2415  142.0605  162.2948 C.3     1  UNL1        0.0725
     13 C         144.5249  142.4283  162.9787 C.3     1  UNL1        0.0188
     14 C         145.0004  141.6339  164.1588 C.3     1  UNL1        0.0188
     15 C         144.0868  140.6380  164.8097 C.3     1  UNL1        0.0721
     16 C         143.1944  142.3139  166.5831 C.3     1  UNL1        0.0896
     17 N         142.9869  141.1088  165.7146 N.3     1  UNL1       -0.2728
     18 C         141.6796  140.3742  165.7509 C.3     1  UNL1        0.0579
     19 C         141.3826  139.3206  164.7254 C.3     1  UNL1        0.0216
     20 C         140.0752  138.5861  164.7617 C.3     1  UNL1        0.0679
     21 C         139.0649  138.9052  165.8235 C.3     1  UNL1        0.2640
     22 F         137.7987  138.8519  166.6259 F       1  UNL1       -0.2043
     23 F         138.3281  137.8330  165.0766 F       1  UNL1       -0.2043
     24 C         139.3619  139.9588  166.8490 C.3     1  UNL1        0.0679
     25 C         140.6692  140.6934  166.8127 C.3     1  UNL1        0.0216
     26 C         142.2749  144.1623  161.1126 C.3     1  UNL1        0.0886
     27 C         141.4438  144.1060  159.8651 C.3     1  UNL1        0.0764
     28 C         141.0945  145.3711  159.1388 C.3     1  UNL1        0.0626
     29 C         140.2634  145.3148  157.8913 C.ar    1  UNL1        0.0577
     30 N         139.9141  146.5799  157.1651 N.ar    1  UNL1       -0.2484
     31 C         139.0830  146.5235  155.9177 C.ar    1  UNL1        0.0984
     32 C         138.6012  145.2021  155.3965 C.ar    1  UNL1        0.0204
     33 C         138.9505  143.9370  156.1228 C.ar    1  UNL1       -0.0002
     34 C         139.7816  143.9933  157.3702 C.ar    1  UNL1        0.0073
     35 C         140.1309  142.7282  158.0965 C.3     1  UNL1        0.0968
     36 N         140.9620  142.7845  159.3439 N.3     1  UNL1       -0.2934
     37 H         141.7911  142.2161  159.1713 H       1  UNL1        0.1236
@<TRIPOS>BOND
     1    16    17    1
     2    17    15    1
     3    15    14    1
     4    14    13    1
     5    13    12    1
     6    12     1    1
     7     1    26    1
     8    27    26    1
     9    27    28    1
    10    28    29    1
    11    29    30   ar
    12    30    31   ar
    13    31    32   ar
    14    32    33   ar
    15    33    34   ar
    16    34    35    1
    17    35    36    1
    18     2     1    1
    19     2     3    1
    20     3     4    1
    21     4     5    1
    22     5     6    1
    23     6     7   ar
    24     7     8   ar
    25     8     9   ar
    26     9    10   ar
    27    10    11   ar
    28    17    18    1
    29    18    19    1
    30    19    20    1
    31    20    21    1
    32    21    22    1
    33    21    23    1
    34    21    24    1
    35    24    25    1
    36    36    27    1
    37    11     2    1
    38    25    18    1
    39    34    29   ar
    40    11     6   ar
    41    36    37    1
