@<TRIPOS>MOLECULE
*****
 33 37 0 0 0
SMALL
GASTEIGER

@<TRIPOS>ATOM
      1 C         143.7676  142.3416  160.0085 C.3     1  UNL1        0.0003
      2 C         142.8458  143.3684  159.4201 C.3     1  UNL1        0.0042
      3 C         142.8465  143.6170  157.9408 C.3     1  UNL1        0.0022
      4 C         143.7690  142.8389  157.0499 C.3     1  UNL1        0.0001
      5 C         141.9248  144.6438  157.3524 C.3     1  UNL1        0.0275
      6 C         141.7041  145.1037  155.9418 C.3     1  UNL1        0.0727
      7 N         140.6453  146.1660  155.9609 N.3     1  UNL1       -0.2710
      8 C         140.1135  146.9023  154.7672 C.3     1  UNL1        0.0896
      9 C         140.2115  146.3626  157.3833 C.3     1  UNL1        0.0829
     10 C         141.0023  145.4218  158.2433 C.3     1  UNL1        0.1091
     11 C         141.2907  145.0773  158.5658 C.2     1  UNL1        0.3173
     12 O         139.6615  147.0482  156.5994 O.2     1  UNL1       -0.2501
     13 O         140.8541  145.4422  159.0072 O.3     1  UNL1       -0.4522
     14 C         141.2903  144.9529  159.3054 C.3     1  UNL1        0.1697
     15 C         139.6590  146.1728  161.8066 C.3     1  UNL1        0.0473
     16 C         141.0016  145.1731  159.7226 C.3     1  UNL1        0.0556
     17 C         141.9233  144.1464  160.3109 C.3     1  UNL1        0.0261
     18 C         141.9226  143.8977  161.7902 C.2     1  UNL1       -0.0248
     19 C         141.0653  142.8107  162.3675 C.2     1  UNL1        0.0145
     20 C         141.0644  142.5620  163.8467 C.ar    1  UNL1        0.0810
     21 C         140.1410  143.3392  164.7374 C.ar    1  UNL1        0.0191
     22 C         140.1403  143.0904  166.2166 C.ar    1  UNL1        0.0031
     23 C         141.0628  142.0646  166.8051 C.ar    1  UNL1        0.0198
     24 C         141.9862  141.2873  165.9145 C.ar    1  UNL1        0.0988
     25 N         141.9870  141.5360  164.4353 N.ar    1  UNL1       -0.2438
     26 C         141.0620  141.8158  168.2844 C.ar    1  UNL1        0.0111
     27 C         141.9379  142.6372  169.1835 C.ar    1  UNL1        0.0007
     28 C         141.9371  142.3885  170.6627 C.ar    1  UNL1        0.0000
     29 C         141.0606  141.3184  171.2429 C.ar    1  UNL1        0.0007
     30 C         140.1848  140.4970  170.3439 C.ar    1  UNL1        0.0103
     31 C         140.1855  140.7458  168.8646 C.ar    1  UNL1        0.0685
     32 C         139.3097  139.9244  167.9656 C.1     1  UNL1        0.1004
     33 N         138.4338  139.1030  167.0665 N.1     1  UNL1       -0.1908
@<TRIPOS>BOND
     1     2     1    1
     2     2     3    1
     3     3     4    1
     4     3     5    1
     5     5     6    1
     6     6     7    1
     7     7     8    1
     8     7     9    1
     9    10     9    1
    10    10    11    1
    11    11    12    2
    12    11    13    1
    13    13    14    1
    14    14    15    1
    15    16    14    1
    16    16    17    1
    17    17    18    1
    18    18    19    2
    19    19    20    1
    20    20    21   ar
    21    21    22   ar
    22    22    23   ar
    23    23    26    1
    24    26    27   ar
    25    27    28   ar
    26    28    29   ar
    27    29    30   ar
    28    30    31   ar
    29    31    32    1
    30    32    33    3
    31    23    24   ar
    32    24    25   ar
    33    17     2    1
    34    25    20   ar
    35    10     5    1
    36    31    26   ar
    37    16    10    1
@<TRIPOS>MOLECULE
*****
 33 37 0 0 0
SMALL
GASTEIGER

@<TRIPOS>ATOM
      1 C         140.8414  145.1870  160.3332 C.3     1  UNL1        0.0003
      2 C         139.9972  144.1956  159.5884 C.3     1  UNL1        0.0042
      3 C         139.8386  144.3131  158.1014 C.3     1  UNL1        0.0022
      4 C         140.5241  145.4219  157.3592 C.3     1  UNL1        0.0001
      5 C         138.9944  143.3218  157.3566 C.3     1  UNL1        0.0275
      6 C         138.6556  143.1846  155.9018 C.3     1  UNL1        0.0727
      7 N         137.7607  141.9911  155.7449 N.3     1  UNL1       -0.2710
      8 C         137.1817  141.4866  154.4564 C.3     1  UNL1        0.0896
      9 C         137.5464  141.3907  157.1027 C.3     1  UNL1        0.0829
     10 C         138.3089  142.2131  158.0988 C.3     1  UNL1        0.1091
     11 C         138.5879  142.5123  158.4710 C.2     1  UNL1        0.3173
     12 O         136.9961  140.8333  156.2232 O.2     1  UNL1       -0.2501
     13 O         138.2656  141.9861  158.8421 O.3     1  UNL1       -0.4522
     14 C         138.6673  142.4536  159.2144 C.3     1  UNL1        0.1697
     15 C         137.5546  140.4199  161.4575 C.3     1  UNL1        0.0473
     16 C         138.4676  142.0957  159.5857 C.3     1  UNL1        0.0556
     17 C         139.3117  143.0870  160.3305 C.3     1  UNL1        0.0261
     18 C         139.4704  142.9695  161.8175 C.2     1  UNL1       -0.0248
     19 C         140.6718  142.2786  162.3913 C.2     1  UNL1        0.0145
     20 C         140.8305  142.1611  163.8782 C.ar    1  UNL1        0.0810
     21 C         140.0689  143.0784  164.7886 C.ar    1  UNL1        0.0191
     22 C         140.2277  142.9608  166.2755 C.ar    1  UNL1        0.0031
     23 C         141.1478  141.9261  166.8521 C.ar    1  UNL1        0.0198
     24 C         141.9093  141.0088  165.9418 C.ar    1  UNL1        0.0988
     25 N         141.7506  141.1263  164.4548 N.ar    1  UNL1       -0.2438
     26 C         141.3066  141.8085  168.3391 C.ar    1  UNL1        0.0111
     27 C         142.3141  142.6582  169.0552 C.ar    1  UNL1        0.0007
     28 C         142.4729  142.5407  170.5421 C.ar    1  UNL1        0.0000
     29 C         141.6241  141.5735  171.3129 C.ar    1  UNL1        0.0007
     30 C         140.6166  140.7238  170.5968 C.ar    1  UNL1        0.0103
     31 C         140.4578  140.8413  169.1098 C.ar    1  UNL1        0.0685
     32 C         139.4503  139.9916  168.3937 C.1     1  UNL1        0.1004
     33 N         138.4427  139.1419  167.6775 N.1     1  UNL1       -0.1908
@<TRIPOS>BOND
     1     2     1    1
     2     2     3    1
     3     3     4    1
     4     3     5    1
     5     5     6    1
     6     6     7    1
     7     7     8    1
     8     7     9    1
     9    10     9    1
    10    10    11    1
    11    11    12    2
    12    11    13    1
    13    13    14    1
    14    14    15    1
    15    16    14    1
    16    16    17    1
    17    17    18    1
    18    18    19    2
    19    19    20    1
    20    20    21   ar
    21    21    22   ar
    22    22    23   ar
    23    23    26    1
    24    26    27   ar
    25    27    28   ar
    26    28    29   ar
    27    29    30   ar
    28    30    31   ar
    29    31    32    1
    30    32    33    3
    31    23    24   ar
    32    24    25   ar
    33    17     2    1
    34    25    20   ar
    35    10     5    1
    36    31    26   ar
    37    16    10    1
@<TRIPOS>MOLECULE
*****
 33 37 0 0 0
SMALL
GASTEIGER

@<TRIPOS>ATOM
      1 C         138.4698  140.1033  163.7014 C.3     1  UNL1        0.0003
      2 C         139.2639  140.7005  164.8252 C.3     1  UNL1        0.0042
      3 C         139.0480  140.2251  166.2314 C.3     1  UNL1        0.0022
      4 C         138.0381  139.1525  166.5138 C.3     1  UNL1        0.0001
      5 C         139.8420  140.8223  167.3552 C.3     1  UNL1        0.0275
      6 C         139.8474  140.5577  168.8317 C.3     1  UNL1        0.0727
      7 N         140.8606  141.4668  169.4617 N.3     1  UNL1       -0.2710
      8 C         141.1944  141.5371  170.9224 C.3     1  UNL1        0.0896
      9 C         141.4814  142.2932  168.3747 C.3     1  UNL1        0.0829
     10 C         140.8519  141.8949  167.0728 C.3     1  UNL1        0.1091
     11 C         140.6236  141.7525  166.5896 C.2     1  UNL1        0.3173
     12 O         141.8922  142.5106  169.4568 O.2     1  UNL1       -0.2501
     13 O         141.1044  142.2664  166.4371 O.3     1  UNL1       -0.4522
     14 C         140.7315  141.9901  165.8864 C.3     1  UNL1        0.1697
     15 C         142.6520  144.1841  164.5067 C.3     1  UNL1        0.0473
     16 C         141.0677  142.3703  165.6666 C.3     1  UNL1        0.0556
     17 C         140.2737  141.7730  164.5428 C.3     1  UNL1        0.0261
     18 C         140.4896  142.2485  163.1366 C.2     1  UNL1       -0.0248
     19 C         139.6797  143.3907  162.5984 C.2     1  UNL1        0.0145
     20 C         139.8956  143.8661  161.1923 C.ar    1  UNL1        0.0810
     21 C         140.7990  145.0336  160.9256 C.ar    1  UNL1        0.0191
     22 C         141.0147  145.5090  159.5194 C.ar    1  UNL1        0.0031
     23 C         140.3272  144.8171  158.3799 C.ar    1  UNL1        0.0198
     24 C         139.4239  143.6497  158.6466 C.ar    1  UNL1        0.0988
     25 N         139.2081  143.1742  160.0527 N.ar    1  UNL1       -0.2438
     26 C         140.5430  145.2925  156.9737 C.ar    1  UNL1        0.0111
     27 C         139.6233  146.3174  156.3791 C.ar    1  UNL1        0.0007
     28 C         139.8390  146.7929  154.9729 C.ar    1  UNL1        0.0000
     29 C         140.9745  146.2434  154.1613 C.ar    1  UNL1        0.0007
     30 C         141.8943  145.2185  154.7559 C.ar    1  UNL1        0.0103
     31 C         141.6785  144.7431  156.1621 C.ar    1  UNL1        0.0685
     32 C         142.5983  143.7182  156.7567 C.1     1  UNL1        0.1004
     33 N         143.5181  142.6932  157.3513 N.1     1  UNL1       -0.1908
@<TRIPOS>BOND
     1     2     1    1
     2     2     3    1
     3     3     4    1
     4     3     5    1
     5     5     6    1
     6     6     7    1
     7     7     8    1
     8     7     9    1
     9    10     9    1
    10    10    11    1
    11    11    12    2
    12    11    13    1
    13    13    14    1
    14    14    15    1
    15    16    14    1
    16    16    17    1
    17    17    18    1
    18    18    19    2
    19    19    20    1
    20    20    21   ar
    21    21    22   ar
    22    22    23   ar
    23    23    26    1
    24    26    27   ar
    25    27    28   ar
    26    28    29   ar
    27    29    30   ar
    28    30    31   ar
    29    31    32    1
    30    32    33    3
    31    23    24   ar
    32    24    25   ar
    33    17     2    1
    34    25    20   ar
    35    10     5    1
    36    31    26   ar
    37    16    10    1
@<TRIPOS>MOLECULE
*****
 33 37 0 0 0
SMALL
GASTEIGER

@<TRIPOS>ATOM
      1 C         141.9229  137.9621  158.4935 C.3     1  UNL1        0.0003
      2 C         142.9120  138.9753  157.9981 C.3     1  UNL1        0.0042
      3 C         143.4144  138.9051  156.5864 C.3     1  UNL1        0.0022
      4 C         142.9277  137.8217  155.6702 C.3     1  UNL1        0.0001
      5 C         144.4034  139.9182  156.0911 C.3     1  UNL1        0.0275
      6 C         145.0719  140.1011  154.7609 C.3     1  UNL1        0.0727
      7 N         145.9718  141.2975  154.8550 N.3     1  UNL1       -0.2710
      8 C         146.8329  141.8420  153.7540 C.3     1  UNL1        0.0896
      9 C         145.8594  141.8540  156.2434 C.3     1  UNL1        0.0829
     10 C         144.8901  141.0015  157.0074 C.3     1  UNL1        0.1091
     11 C         144.5336  140.6911  157.2945 C.2     1  UNL1        0.3173
     12 O         146.5967  142.4382  155.5349 O.2     1  UNL1       -0.2501
     13 O         144.7571  141.2047  157.7470 O.3     1  UNL1       -0.4522
     14 C         144.2823  140.7261  158.0003 C.3     1  UNL1        0.1697
     15 C         144.8282  142.6854  160.5040 C.3     1  UNL1        0.0473
     16 C         144.3877  141.0717  158.4190 C.3     1  UNL1        0.0556
     17 C         143.3986  140.0586  158.9143 C.3     1  UNL1        0.0261
     18 C         142.8962  140.1288  160.3260 C.2     1  UNL1       -0.0248
     19 C         143.6479  139.4376  161.4248 C.2     1  UNL1        0.0145
     20 C         143.1456  139.5078  162.8364 C.ar    1  UNL1        0.0810
     21 C         142.5462  138.2929  163.4805 C.ar    1  UNL1        0.0191
     22 C         142.0439  138.3632  164.8922 C.ar    1  UNL1        0.0031
     23 C         142.1409  139.6482  165.6597 C.ar    1  UNL1        0.0198
     24 C         142.7403  140.8631  165.0156 C.ar    1  UNL1        0.0988
     25 N         143.2426  140.7929  163.6040 N.ar    1  UNL1       -0.2438
     26 C         141.6386  139.7185  167.0714 C.ar    1  UNL1        0.0111
     27 C         142.5716  139.4457  168.2138 C.ar    1  UNL1        0.0007
     28 C         142.0694  139.5160  169.6255 C.ar    1  UNL1        0.0000
     29 C         140.6342  139.8591  169.8947 C.ar    1  UNL1        0.0007
     30 C         139.7012  140.1319  168.7523 C.ar    1  UNL1        0.0103
     31 C         140.2035  140.0616  167.3406 C.ar    1  UNL1        0.0685
     32 C         139.2705  140.3344  166.1982 C.1     1  UNL1        0.1004
     33 N         138.3375  140.6072  165.0558 N.1     1  UNL1       -0.1908
@<TRIPOS>BOND
     1     2     1    1
     2     2     3    1
     3     3     4    1
     4     3     5    1
     5     5     6    1
     6     6     7    1
     7     7     8    1
     8     7     9    1
     9    10     9    1
    10    10    11    1
    11    11    12    2
    12    11    13    1
    13    13    14    1
    14    14    15    1
    15    16    14    1
    16    16    17    1
    17    17    18    1
    18    18    19    2
    19    19    20    1
    20    20    21   ar
    21    21    22   ar
    22    22    23   ar
    23    23    26    1
    24    26    27   ar
    25    27    28   ar
    26    28    29   ar
    27    29    30   ar
    28    30    31   ar
    29    31    32    1
    30    32    33    3
    31    23    24   ar
    32    24    25   ar
    33    17     2    1
    34    25    20   ar
    35    10     5    1
    36    31    26   ar
    37    16    10    1
@<TRIPOS>MOLECULE
*****
 33 37 0 0 0
SMALL
GASTEIGER

@<TRIPOS>ATOM
      1 C         140.2486  145.6794  160.4906 C.3     1  UNL1        0.0003
      2 C         141.2072  144.9034  159.6367 C.3     1  UNL1        0.0042
      3 C         141.2472  145.1336  158.1549 C.3     1  UNL1        0.0022
      4 C         140.3286  146.1396  157.5271 C.3     1  UNL1        0.0001
      5 C         142.2057  144.3576  157.3010 C.3     1  UNL1        0.0275
      6 C         142.4702  144.3688  155.8246 C.3     1  UNL1        0.0727
      7 N         143.5521  143.3697  155.5399 N.3     1  UNL1       -0.2710
      8 C         144.1287  143.0546  154.1915 C.3     1  UNL1        0.0896
      9 C         143.9564  142.7410  156.8404 C.3     1  UNL1        0.0829
     10 C         143.1243  143.3516  157.9289 C.3     1  UNL1        0.1091
     11 C         142.8206  143.5729  158.3347 C.2     1  UNL1        0.3173
     12 O         144.5403  142.3452  155.8973 O.2     1  UNL1       -0.2501
     13 O         143.2548  143.0937  158.6516 O.3     1  UNL1       -0.4522
     14 C         142.8006  143.4579  159.0755 C.3     1  UNL1        0.1697
     15 C         144.3996  141.5352  161.1132 C.3     1  UNL1        0.0473
     16 C         143.0843  143.1215  159.4106 C.3     1  UNL1        0.0556
     17 C         142.1258  143.8974  160.2644 C.3     1  UNL1        0.0261
     18 C         142.0858  143.6673  161.7462 C.2     1  UNL1       -0.0248
     19 C         141.1238  142.6725  162.3249 C.2     1  UNL1        0.0145
     20 C         141.0838  142.4423  163.8066 C.ar    1  UNL1        0.0810
     21 C         140.2187  143.3053  164.6766 C.ar    1  UNL1        0.0191
     22 C         140.1788  143.0750  166.1583 C.ar    1  UNL1        0.0031
     23 C         141.0039  141.9819  166.7700 C.ar    1  UNL1        0.0198
     24 C         141.8690  141.1190  165.9000 C.ar    1  UNL1        0.0988
     25 N         141.9090  141.3492  164.4183 N.ar    1  UNL1       -0.2438
     26 C         140.9639  141.7517  168.2517 C.ar    1  UNL1        0.0111
     27 C         141.8180  142.5824  169.1630 C.ar    1  UNL1        0.0007
     28 C         141.7781  142.3522  170.6447 C.ar    1  UNL1        0.0000
     29 C         140.8841  141.2913  171.2151 C.ar    1  UNL1        0.0007
     30 C         140.0300  140.4606  170.3038 C.ar    1  UNL1        0.0103
     31 C         140.0700  140.6908  168.8220 C.ar    1  UNL1        0.0685
     32 C         139.2159  139.8601  167.9108 C.1     1  UNL1        0.1004
     33 N         138.3618  139.0294  166.9994 N.1     1  UNL1       -0.1908
@<TRIPOS>BOND
     1     2     1    1
     2     2     3    1
     3     3     4    1
     4     3     5    1
     5     5     6    1
     6     6     7    1
     7     7     8    1
     8     7     9    1
     9    10     9    1
    10    10    11    1
    11    11    12    2
    12    11    13    1
    13    13    14    1
    14    14    15    1
    15    16    14    1
    16    16    17    1
    17    17    18    1
    18    18    19    2
    19    19    20    1
    20    20    21   ar
    21    21    22   ar
    22    22    23   ar
    23    23    26    1
    24    26    27   ar
    25    27    28   ar
    26    28    29   ar
    27    29    30   ar
    28    30    31   ar
    29    31    32    1
    30    32    33    3
    31    23    24   ar
    32    24    25   ar
    33    17     2    1
    34    25    20   ar
    35    10     5    1
    36    31    26   ar
    37    16    10    1
@<TRIPOS>MOLECULE
*****
 33 37 0 0 0
SMALL
GASTEIGER

@<TRIPOS>ATOM
      1 C         139.3791  138.6029  165.3277 C.3     1  UNL1        0.0003
      2 C         140.4119  139.4795  165.9721 C.3     1  UNL1        0.0042
      3 C         140.1815  140.0197  167.3524 C.3     1  UNL1        0.0022
      4 C         138.9185  139.6833  168.0884 C.3     1  UNL1        0.0001
      5 C         141.2142  140.8963  167.9967 C.3     1  UNL1        0.0275
      6 C         141.2645  141.5702  169.3358 C.3     1  UNL1        0.0727
      7 N         142.5586  142.3232  169.4275 N.3     1  UNL1       -0.2710
      8 C         143.0219  143.1411  170.5964 C.3     1  UNL1        0.0896
      9 C         143.3081  142.1145  168.1450 C.3     1  UNL1        0.0829
     10 C         142.4772  141.2327  167.2607 C.3     1  UNL1        0.1091
     11 C         142.1757  140.9078  166.9300 C.2     1  UNL1        0.3173
     12 O         143.8572  142.7958  168.9334 O.2     1  UNL1       -0.2501
     13 O         142.7764  141.0598  166.5633 O.3     1  UNL1       -0.4522
     14 C         142.2907  140.6377  166.2399 C.3     1  UNL1        0.1697
     15 C         144.6679  140.8943  164.0745 C.3     1  UNL1        0.0473
     16 C         142.7076  140.6925  165.8805 C.3     1  UNL1        0.0556
     17 C         141.6748  139.8159  165.2362 C.3     1  UNL1        0.0261
     18 C         141.9052  139.2757  163.8558 C.2     1  UNL1       -0.0248
     19 C         141.3662  140.0095  162.6638 C.2     1  UNL1        0.0145
     20 C         141.5965  139.4694  161.2835 C.ar    1  UNL1        0.0810
     21 C         142.6645  138.4426  161.0484 C.ar    1  UNL1        0.0191
     22 C         142.8947  137.9026  159.6681 C.ar    1  UNL1        0.0031
     23 C         142.0572  138.3892  158.5229 C.ar    1  UNL1        0.0198
     24 C         140.9892  139.4160  158.7579 C.ar    1  UNL1        0.0988
     25 N         140.7589  139.9561  160.1382 N.ar    1  UNL1       -0.2438
     26 C         142.2875  137.8491  157.1425 C.ar    1  UNL1        0.0111
     27 C         141.5464  136.6293  156.6812 C.ar    1  UNL1        0.0007
     28 C         141.7766  136.0892  155.3009 C.ar    1  UNL1        0.0000
     29 C         142.7479  136.7689  154.3819 C.ar    1  UNL1        0.0007
     30 C         143.4890  137.9888  154.8432 C.ar    1  UNL1        0.0103
     31 C         143.2587  138.5288  156.2236 C.ar    1  UNL1        0.0685
     32 C         143.9997  139.7487  156.6849 C.1     1  UNL1        0.1004
     33 N         144.7408  140.9686  157.1462 N.1     1  UNL1       -0.1908
@<TRIPOS>BOND
     1     2     1    1
     2     2     3    1
     3     3     4    1
     4     3     5    1
     5     5     6    1
     6     6     7    1
     7     7     8    1
     8     7     9    1
     9    10     9    1
    10    10    11    1
    11    11    12    2
    12    11    13    1
    13    13    14    1
    14    14    15    1
    15    16    14    1
    16    16    17    1
    17    17    18    1
    18    18    19    2
    19    19    20    1
    20    20    21   ar
    21    21    22   ar
    22    22    23   ar
    23    23    26    1
    24    26    27   ar
    25    27    28   ar
    26    28    29   ar
    27    29    30   ar
    28    30    31   ar
    29    31    32    1
    30    32    33    3
    31    23    24   ar
    32    24    25   ar
    33    17     2    1
    34    25    20   ar
    35    10     5    1
    36    31    26   ar
    37    16    10    1
@<TRIPOS>MOLECULE
*****
 33 37 0 0 0
SMALL
GASTEIGER

@<TRIPOS>ATOM
      1 C         141.4667  144.4969  159.8564 C.3     1  UNL1        0.0003
      2 C         142.3480  143.4748  159.2014 C.3     1  UNL1        0.0042
      3 C         142.7789  143.6588  157.7764 C.3     1  UNL1        0.0022
      4 C         142.3284  144.8647  157.0064 C.3     1  UNL1        0.0001
      5 C         143.6601  142.6368  157.1215 C.3     1  UNL1        0.0275
      6 C         144.2414  142.5493  155.7415 C.3     1  UNL1        0.0727
      7 N         145.0511  141.2893  155.6587 N.3     1  UNL1       -0.2710
      8 C         145.8087  140.8054  154.4579 C.3     1  UNL1        0.0896
      9 C         144.9702  140.5981  156.9875 C.3     1  UNL1        0.0829
     10 C         144.1105  141.4309  157.8916 C.3     1  UNL1        0.1091
     11 C         143.7945  141.7335  158.2298 C.2     1  UNL1        0.3173
     12 O         145.6223  140.0418  156.1798 O.2     1  UNL1       -0.2501
     13 O         144.0018  141.1604  158.6133 O.3     1  UNL1       -0.4522
     14 C         143.5790  141.6416  158.9423 C.3     1  UNL1        0.1697
     15 C         144.1055  139.3945  161.1959 C.3     1  UNL1        0.0473
     16 C         143.6796  141.2470  159.3166 C.3     1  UNL1        0.0556
     17 C         142.7984  142.2690  159.9714 C.3     1  UNL1        0.0261
     18 C         142.3675  142.0850  161.3965 C.2     1  UNL1       -0.0248
     19 C         143.2058  142.6379  162.5107 C.2     1  UNL1        0.0145
     20 C         142.7750  142.4540  163.9357 C.ar    1  UNL1        0.0810
     21 C         143.7214  142.7790  165.0533 C.ar    1  UNL1        0.0191
     22 C         143.2905  142.5951  166.4782 C.ar    1  UNL1        0.0031
     23 C         141.9134  142.0861  166.7856 C.ar    1  UNL1        0.0198
     24 C         140.9671  141.7610  165.6681 C.ar    1  UNL1        0.0988
     25 N         141.3979  141.9450  164.2432 N.ar    1  UNL1       -0.2438
     26 C         141.4826  141.9022  168.2107 C.ar    1  UNL1        0.0111
     27 C         140.6965  142.9770  168.9011 C.ar    1  UNL1        0.0007
     28 C         140.2656  142.7932  170.3261 C.ar    1  UNL1        0.0000
     29 C         140.6208  141.5344  171.0606 C.ar    1  UNL1        0.0007
     30 C         141.4069  140.4596  170.3701 C.ar    1  UNL1        0.0103
     31 C         141.8377  140.6435  168.9451 C.ar    1  UNL1        0.0685
     32 C         142.6238  139.5686  168.2546 C.1     1  UNL1        0.1004
     33 N         143.4099  138.4937  167.5641 N.1     1  UNL1       -0.1908
@<TRIPOS>BOND
     1     2     1    1
     2     2     3    1
     3     3     4    1
     4     3     5    1
     5     5     6    1
     6     6     7    1
     7     7     8    1
     8     7     9    1
     9    10     9    1
    10    10    11    1
    11    11    12    2
    12    11    13    1
    13    13    14    1
    14    14    15    1
    15    16    14    1
    16    16    17    1
    17    17    18    1
    18    18    19    2
    19    19    20    1
    20    20    21   ar
    21    21    22   ar
    22    22    23   ar
    23    23    26    1
    24    26    27   ar
    25    27    28   ar
    26    28    29   ar
    27    29    30   ar
    28    30    31   ar
    29    31    32    1
    30    32    33    3
    31    23    24   ar
    32    24    25   ar
    33    17     2    1
    34    25    20   ar
    35    10     5    1
    36    31    26   ar
    37    16    10    1
@<TRIPOS>MOLECULE
*****
 33 37 0 0 0
SMALL
GASTEIGER

@<TRIPOS>ATOM
      1 C         140.1456  144.2013  162.7892 C.3     1  UNL1        0.0003
      2 C         140.8190  143.5490  163.9602 C.3     1  UNL1        0.0042
      3 C         140.1525  143.5488  165.3041 C.3     1  UNL1        0.0022
      4 C         138.8127  144.2009  165.4769 C.3     1  UNL1        0.0001
      5 C         140.8259  142.8966  166.4750 C.3     1  UNL1        0.0275
      6 C         140.4157  142.7398  167.9093 C.3     1  UNL1        0.0727
      7 N         141.5019  141.9910  168.6228 N.3     1  UNL1       -0.2710
      8 C         141.5060  141.6143  170.0748 C.3     1  UNL1        0.0896
      9 C         142.5835  141.6849  167.6296 C.3     1  UNL1        0.0829
     10 C         142.1657  142.2446  166.3022 C.3     1  UNL1        0.1091
     11 C         142.0173  142.4487  165.8100 C.2     1  UNL1        0.3173
     12 O         142.7905  141.2955  168.7217 O.2     1  UNL1       -0.2501
     13 O         142.6602  142.1402  165.7102 O.3     1  UNL1       -0.4522
     14 C         142.3505  142.4489  165.1381 C.3     1  UNL1        0.1697
     15 C         145.1364  141.2963  163.9911 C.3     1  UNL1        0.0473
     16 C         142.8321  142.2449  164.9583 C.3     1  UNL1        0.0556
     17 C         142.1587  142.8971  163.7874 C.3     1  UNL1        0.0261
     18 C         142.8252  142.8973  162.4435 C.2     1  UNL1       -0.0248
     19 C         142.4406  141.8749  161.4156 C.2     1  UNL1        0.0145
     20 C         143.1070  141.8750  160.0717 C.ar    1  UNL1        0.0810
     21 C         143.0877  143.1132  159.2251 C.ar    1  UNL1        0.0191
     22 C         143.7542  143.1132  157.8813 C.ar    1  UNL1        0.0031
     23 C         144.4399  141.8753  157.3841 C.ar    1  UNL1        0.0198
     24 C         144.4592  140.6372  158.2306 C.ar    1  UNL1        0.0988
     25 N         143.7927  140.6371  159.5745 N.ar    1  UNL1       -0.2438
     26 C         145.1063  141.8754  156.0402 C.ar    1  UNL1        0.0111
     27 C         144.3606  141.3885  154.8333 C.ar    1  UNL1        0.0007
     28 C         145.0270  141.3886  153.4894 C.ar    1  UNL1        0.0000
     29 C         146.4391  141.8756  153.3525 C.ar    1  UNL1        0.0007
     30 C         147.1849  142.3624  154.5595 C.ar    1  UNL1        0.0103
     31 C         146.5184  142.3624  155.9034 C.ar    1  UNL1        0.0685
     32 C         147.2642  142.8492  157.1103 C.1     1  UNL1        0.1004
     33 N         148.0100  143.3362  158.3173 N.1     1  UNL1       -0.1908
@<TRIPOS>BOND
     1     2     1    1
     2     2     3    1
     3     3     4    1
     4     3     5    1
     5     5     6    1
     6     6     7    1
     7     7     8    1
     8     7     9    1
     9    10     9    1
    10    10    11    1
    11    11    12    2
    12    11    13    1
    13    13    14    1
    14    14    15    1
    15    16    14    1
    16    16    17    1
    17    17    18    1
    18    18    19    2
    19    19    20    1
    20    20    21   ar
    21    21    22   ar
    22    22    23   ar
    23    23    26    1
    24    26    27   ar
    25    27    28   ar
    26    28    29   ar
    27    29    30   ar
    28    30    31   ar
    29    31    32    1
    30    32    33    3
    31    23    24   ar
    32    24    25   ar
    33    17     2    1
    34    25    20   ar
    35    10     5    1
    36    31    26   ar
    37    16    10    1
@<TRIPOS>MOLECULE
*****
 33 37 0 0 0
SMALL
GASTEIGER

@<TRIPOS>ATOM
      1 C         139.3539  140.7030  159.2092 C.3     1  UNL1        0.0003
      2 C         140.3289  139.6559  158.7586 C.3     1  UNL1        0.0042
      3 C         140.2144  139.0665  157.3839 C.3     1  UNL1        0.0022
      4 C         139.1250  139.5242  156.4600 C.3     1  UNL1        0.0001
      5 C         141.1894  138.0194  156.9334 C.3     1  UNL1        0.0275
      6 C         141.3252  137.2622  155.6457 C.3     1  UNL1        0.0727
      7 N         142.4985  136.3366  155.7738 N.3     1  UNL1       -0.2710
      8 C         142.9954  135.3917  154.7200 C.3     1  UNL1        0.0896
      9 C         143.0879  136.5217  157.1407 C.3     1  UNL1        0.0829
     10 C         142.2788  137.5617  157.8574 C.3     1  UNL1        0.1091
     11 C         141.9844  137.9445  158.1270 C.2     1  UNL1        0.3173
     12 O         143.6364  135.7242  156.4697 O.2     1  UNL1       -0.2501
     13 O         142.5014  137.7358  158.5826 O.3     1  UNL1       -0.4522
     14 C         142.0416  138.2392  158.8143 C.3     1  UNL1        0.1697
     15 C         144.0392  137.7991  161.3085 C.3     1  UNL1        0.0473
     16 C         142.3932  138.1511  159.2320 C.3     1  UNL1        0.0556
     17 C         141.4182  139.1982  159.6825 C.3     1  UNL1        0.0261
     18 C         141.5327  139.7876  161.0572 C.2     1  UNL1       -0.0248
     19 C         140.6302  139.3094  162.1557 C.2     1  UNL1        0.0145
     20 C         140.7446  139.8988  163.5303 C.ar    1  UNL1        0.0810
     21 C         141.8367  140.8804  163.8370 C.ar    1  UNL1        0.0191
     22 C         141.9510  141.4697  165.2117 C.ar    1  UNL1        0.0031
     23 C         140.9735  141.0775  166.2795 C.ar    1  UNL1        0.0198
     24 C         139.8815  140.0959  165.9729 C.ar    1  UNL1        0.0988
     25 N         139.7671  139.5066  164.5983 N.ar    1  UNL1       -0.2438
     26 C         141.0879  141.6668  167.6542 C.ar    1  UNL1        0.0111
     27 C         140.3581  142.9335  167.9903 C.ar    1  UNL1        0.0007
     28 C         140.4724  143.5228  169.3649 C.ar    1  UNL1        0.0000
     29 C         141.3166  142.8455  170.4035 C.ar    1  UNL1        0.0007
     30 C         142.0464  141.5789  170.0674 C.ar    1  UNL1        0.0103
     31 C         141.9320  140.9895  168.6927 C.ar    1  UNL1        0.0685
     32 C         142.6619  139.7229  168.3567 C.1     1  UNL1        0.1004
     33 N         143.3918  138.4562  168.0207 N.1     1  UNL1       -0.1908
@<TRIPOS>BOND
     1     2     1    1
     2     2     3    1
     3     3     4    1
     4     3     5    1
     5     5     6    1
     6     6     7    1
     7     7     8    1
     8     7     9    1
     9    10     9    1
    10    10    11    1
    11    11    12    2
    12    11    13    1
    13    13    14    1
    14    14    15    1
    15    16    14    1
    16    16    17    1
    17    17    18    1
    18    18    19    2
    19    19    20    1
    20    20    21   ar
    21    21    22   ar
    22    22    23   ar
    23    23    26    1
    24    26    27   ar
    25    27    28   ar
    26    28    29   ar
    27    29    30   ar
    28    30    31   ar
    29    31    32    1
    30    32    33    3
    31    23    24   ar
    32    24    25   ar
    33    17     2    1
    34    25    20   ar
    35    10     5    1
    36    31    26   ar
    37    16    10    1
