@<TRIPOS>MOLECULE
*****
 39 42 0 0 0
SMALL
GASTEIGER

@<TRIPOS>ATOM
      1 N         139.9360  140.8682  166.6172 N.am    1  UNL1       -0.2781
      2 C         140.2939  142.1957  166.0175 C.2     1  UNL1        0.2685
      3 O         141.4788  142.9569  166.5336 O.2     1  UNL1       -0.2681
      4 H         139.1583  140.3686  166.2784 H       1  UNL1        0.1553
      5 C         139.4668  142.7620  164.9015 C.ar    1  UNL1        0.1475
      6 N         139.3714  142.0329  163.5941 N.ar    1  UNL1       -0.2379
      7 C         138.5443  142.5992  162.4783 C.ar    1  UNL1        0.1013
      8 C         137.8126  143.8946  162.6698 C.ar    1  UNL1        0.0220
      9 C         137.9080  144.6236  163.9772 C.ar    1  UNL1        0.0174
     10 C         138.7351  144.0573  165.0930 C.ar    1  UNL1        0.0640
     11 N         138.8305  144.7864  166.4005 N.pl3   1  UNL1       -0.3557
     12 H         138.3503  145.6366  166.5263 H       1  UNL1        0.1424
     13 H         139.3733  144.4147  167.1329 H       1  UNL1        0.1424
     14 C         138.4489  141.8702  161.1708 C.ar    1  UNL1        0.1262
     15 N         138.8769  142.5463  159.9021 N.ar    1  UNL1       -0.2400
     16 C         138.7815  141.8174  158.5946 C.ar    1  UNL1        0.0990
     17 C         138.2581  140.4122  158.5559 C.ar    1  UNL1        0.0230
     18 C         137.8301  139.7361  159.8246 C.ar    1  UNL1        0.0328
     19 C         137.9255  140.4650  161.1320 C.ar    1  UNL1        0.1591
     20 F         137.4974  139.7889  162.4007 F       1  UNL1       -0.2025
     21 C         141.9653  139.4602  167.4231 C.ar    1  UNL1       -0.0059
     22 C         142.7924  138.8940  168.5391 C.ar    1  UNL1        0.0176
     23 C         142.4172  139.1694  169.9650 C.ar    1  UNL1        0.0987
     24 N         141.2149  140.0111  170.2750 N.ar    1  UNL1       -0.2410
     25 C         140.3879  140.5774  169.1591 C.ar    1  UNL1        0.1132
     26 C         140.7631  140.3019  167.7332 C.ar    1  UNL1        0.0660
     27 C         143.0909  138.6339  163.1453 C.3     1  UNL1        0.1127
     28 O         142.7074  137.7317  162.0099 O.3     1  UNL1       -0.3844
     29 C         141.9994  137.8405  163.8003 C.3     1  UNL1        0.1352
     30 O         141.2830  136.7716  163.0293 O.3     1  UNL1       -0.3821
     31 C         141.6242  138.1159  165.2262 C.3     1  UNL1        0.0360
     32 C         142.3405  139.1848  165.9972 C.3     1  UNL1        0.0262
     33 C         143.4321  139.9781  165.3422 C.3     1  UNL1        0.0069
     34 C         143.8072  139.7027  163.9162 C.3     1  UNL1        0.0273
     35 C         144.8988  140.4961  163.2612 C.3     1  UNL1        0.0025
     36 H         141.9902  137.1431  162.2927 H       1  UNL1        0.2103
     37 H         140.6123  136.3589  163.5956 H       1  UNL1        0.2104
     38 C         143.9055  138.6456  160.6782 C.3     1  UNL1        0.0026
     39 C         144.0493  139.1140  162.0959 C.3     1  UNL1        0.0293
@<TRIPOS>BOND
     1    38    39    1
     2    39    27    1
     3    27    28    1
     4    27    29    1
     5    29    30    1
     6    29    31    1
     7    31    32    1
     8    32    21    1
     9    21    22   ar
    10    22    23   ar
    11    23    24   ar
    12    24    25   ar
    13    25    26   ar
    14    26     1    1
    15     1     2   am
    16     2     3    2
    17     2     5    1
    18     5     6   ar
    19     6     7   ar
    20     7    14    1
    21    14    15   ar
    22    15    16   ar
    23    16    17   ar
    24    17    18   ar
    25    18    19   ar
    26    19    20    1
    27     7     8   ar
    28     8     9   ar
    29     9    10   ar
    30    10    11    1
    31    32    33    1
    32    33    34    1
    33    34    35    1
    34    34    27    1
    35    26    21   ar
    36    10     5   ar
    37    19    14   ar
    38    28    36    1
    39    30    37    1
    40     1     4    1
    41    11    12    1
    42    11    13    1
@<TRIPOS>MOLECULE
*****
 39 42 0 0 0
SMALL
GASTEIGER

@<TRIPOS>ATOM
      1 N         140.8416  142.7063  166.4975 N.am    1  UNL1       -0.2781
      2 C         142.1168  142.3072  165.8160 C.2     1  UNL1        0.2685
      3 O         142.9098  141.1427  166.3311 O.2     1  UNL1       -0.2681
      4 H         140.3211  143.4706  166.1595 H       1  UNL1        0.1553
      5 C         142.5991  143.0725  164.6195 C.ar    1  UNL1        0.1475
      6 N         141.7789  143.0964  163.3639 N.ar    1  UNL1       -0.2379
      7 C         142.2612  143.8617  162.1674 C.ar    1  UNL1        0.1013
      8 C         143.5638  144.6032  162.2265 C.ar    1  UNL1        0.0220
      9 C         144.3840  144.5793  163.4821 C.ar    1  UNL1        0.0174
     10 C         143.9017  143.8140  164.6786 C.ar    1  UNL1        0.0640
     11 N         144.7220  143.7901  165.9343 N.pl3   1  UNL1       -0.3557
     12 H         145.5769  144.2768  165.9731 H       1  UNL1        0.1424
     13 H         144.4054  143.2878  166.7196 H       1  UNL1        0.1424
     14 C         141.4409  143.8855  160.9117 C.ar    1  UNL1        0.1262
     15 N         141.4276  145.1117  160.0478 N.ar    1  UNL1       -0.2400
     16 C         140.6074  145.1356  158.7922 C.ar    1  UNL1        0.0990
     17 C         139.8005  143.9334  158.4005 C.ar    1  UNL1        0.0230
     18 C         139.8139  142.7072  159.2644 C.ar    1  UNL1        0.0328
     19 C         140.6340  142.6833  160.5200 C.ar    1  UNL1        0.1591
     20 F         140.6474  141.4571  161.3839 F       1  UNL1       -0.2025
     21 C         139.6027  140.6590  167.5094 C.ar    1  UNL1       -0.0059
     22 C         139.1205  139.8937  168.7059 C.ar    1  UNL1        0.0176
     23 C         139.3947  140.4104  170.0871 C.ar    1  UNL1        0.0987
     24 N         140.1513  141.6924  170.2718 N.ar    1  UNL1       -0.2410
     25 C         140.6335  142.4576  169.0753 C.ar    1  UNL1        0.1132
     26 C         140.3593  141.9409  167.6941 C.ar    1  UNL1        0.0660
     27 C         138.7799  139.1089  163.3657 C.3     1  UNL1        0.1127
     28 O         137.8785  139.3760  162.1969 O.3     1  UNL1       -0.3844
     29 C         137.9857  140.2603  163.9071 C.3     1  UNL1        0.1352
     30 O         136.9170  140.8952  163.0674 O.3     1  UNL1       -0.3821
     31 C         138.2599  140.7770  165.2884 C.3     1  UNL1        0.0360
     32 C         139.3285  140.1423  166.1281 C.3     1  UNL1        0.0262
     33 C         140.1227  138.9908  165.5867 C.3     1  UNL1        0.0069
     34 C         139.8485  138.4741  164.2055 C.3     1  UNL1        0.0273
     35 C         140.6428  137.3226  163.6640 C.3     1  UNL1        0.0025
     36 H         137.2893  140.1177  162.4058 H       1  UNL1        0.2103
     37 H         136.5037  141.6192  163.5632 H       1  UNL1        0.2104
     38 C         138.9355  138.1468  160.9573 C.3     1  UNL1        0.0026
     39 C         139.2612  138.0501  162.4183 C.3     1  UNL1        0.0293
@<TRIPOS>BOND
     1    38    39    1
     2    39    27    1
     3    27    28    1
     4    27    29    1
     5    29    30    1
     6    29    31    1
     7    31    32    1
     8    32    21    1
     9    21    22   ar
    10    22    23   ar
    11    23    24   ar
    12    24    25   ar
    13    25    26   ar
    14    26     1    1
    15     1     2   am
    16     2     3    2
    17     2     5    1
    18     5     6   ar
    19     6     7   ar
    20     7    14    1
    21    14    15   ar
    22    15    16   ar
    23    16    17   ar
    24    17    18   ar
    25    18    19   ar
    26    19    20    1
    27     7     8   ar
    28     8     9   ar
    29     9    10   ar
    30    10    11    1
    31    32    33    1
    32    33    34    1
    33    34    35    1
    34    34    27    1
    35    26    21   ar
    36    10     5   ar
    37    19    14   ar
    38    28    36    1
    39    30    37    1
    40     1     4    1
    41    11    12    1
    42    11    13    1
@<TRIPOS>MOLECULE
*****
 39 42 0 0 0
SMALL
GASTEIGER

@<TRIPOS>ATOM
      1 N         141.6254  139.9014  165.5113 N.am    1  UNL1       -0.2781
      2 C         140.1475  139.9532  165.2602 C.2     1  UNL1        0.2685
      3 O         139.2311  140.5375  166.2940 O.2     1  UNL1       -0.2681
      4 H         142.2268  139.5179  164.8327 H       1  UNL1        0.1553
      5 C         139.5859  139.4206  163.9752 C.ar    1  UNL1        0.1475
      6 N         139.7058  140.2242  162.7143 N.ar    1  UNL1       -0.2379
      7 C         139.1442  139.6917  161.4294 C.ar    1  UNL1        0.1013
      8 C         138.4628  138.3556  161.4054 C.ar    1  UNL1        0.0220
      9 C         138.3430  137.5520  162.6663 C.ar    1  UNL1        0.0174
     10 C         138.9045  138.0846  163.9512 C.ar    1  UNL1        0.0640
     11 N         138.7847  137.2810  165.2121 N.pl3   1  UNL1       -0.3557
     12 H         138.3375  136.4041  165.1964 H       1  UNL1        0.1424
     13 H         139.1533  137.6305  166.0555 H       1  UNL1        0.1424
     14 C         139.2641  140.4952  160.1684 C.ar    1  UNL1        0.1262
     15 N         139.9835  139.9258  158.9817 N.ar    1  UNL1       -0.2400
     16 C         140.1033  140.7293  157.7208 C.ar    1  UNL1        0.0990
     17 C         139.5038  142.1022  157.6465 C.ar    1  UNL1        0.0230
     18 C         138.7843  142.6716  158.8332 C.ar    1  UNL1        0.0328
     19 C         138.6645  141.8682  160.0941 C.ar    1  UNL1        0.1591
     20 F         137.9451  142.4376  161.2808 F       1  UNL1       -0.2025
     21 C         142.5225  141.8905  166.9215 C.ar    1  UNL1       -0.0059
     22 C         143.0840  142.4229  168.2065 C.ar    1  UNL1        0.0176
     23 C         143.3100  141.4988  169.3662 C.ar    1  UNL1        0.0987
     24 N         142.9744  140.0422  169.2410 N.ar    1  UNL1       -0.2410
     25 C         142.4128  139.5098  167.9560 C.ar    1  UNL1        0.1132
     26 C         142.1869  140.4339  166.7963 C.ar    1  UNL1        0.0660
     27 C         141.8447  144.6629  163.4424 C.3     1  UNL1        0.1127
     28 O         142.6038  145.3015  162.3171 O.3     1  UNL1       -0.3844
     29 C         143.2134  144.1074  163.7032 C.3     1  UNL1        0.1352
     30 O         144.3563  144.4760  162.8042 O.3     1  UNL1       -0.3821
     31 C         143.4394  143.1833  164.8629 C.3     1  UNL1        0.0360
     32 C         142.2966  142.8146  165.7618 C.3     1  UNL1        0.0262
     33 C         140.9279  143.3701  165.5010 C.3     1  UNL1        0.0069
     34 C         140.7020  144.2942  164.3413 C.3     1  UNL1        0.0273
     35 C         139.3332  144.8497  164.0805 C.3     1  UNL1        0.0025
     36 H         143.5331  145.0266  162.3570 H       1  UNL1        0.2103
     37 H         145.1640  144.0347  163.1105 H       1  UNL1        0.2104
     38 C         140.6291  145.4769  161.2953 C.3     1  UNL1        0.0026
     39 C         140.7396  145.4401  162.7908 C.3     1  UNL1        0.0293
@<TRIPOS>BOND
     1    38    39    1
     2    39    27    1
     3    27    28    1
     4    27    29    1
     5    29    30    1
     6    29    31    1
     7    31    32    1
     8    32    21    1
     9    21    22   ar
    10    22    23   ar
    11    23    24   ar
    12    24    25   ar
    13    25    26   ar
    14    26     1    1
    15     1     2   am
    16     2     3    2
    17     2     5    1
    18     5     6   ar
    19     6     7   ar
    20     7    14    1
    21    14    15   ar
    22    15    16   ar
    23    16    17   ar
    24    17    18   ar
    25    18    19   ar
    26    19    20    1
    27     7     8   ar
    28     8     9   ar
    29     9    10   ar
    30    10    11    1
    31    32    33    1
    32    33    34    1
    33    34    35    1
    34    34    27    1
    35    26    21   ar
    36    10     5   ar
    37    19    14   ar
    38    28    36    1
    39    30    37    1
    40     1     4    1
    41    11    12    1
    42    11    13    1
@<TRIPOS>MOLECULE
*****
 39 42 0 0 0
SMALL
GASTEIGER

@<TRIPOS>ATOM
      1 N         142.2838  138.7627  161.1210 N.am    1  UNL1       -0.2781
      2 C         140.9233  139.2445  161.5295 C.2     1  UNL1        0.2685
      3 O         140.0134  139.8706  160.5147 O.2     1  UNL1       -0.2681
      4 H         142.8810  138.3517  161.7872 H       1  UNL1        0.1553
      5 C         140.4727  139.1001  162.9530 C.ar    1  UNL1        0.1475
      6 N         141.2446  139.7634  164.0550 N.ar    1  UNL1       -0.2379
      7 C         140.7939  139.6190  165.4783 C.ar    1  UNL1        0.1013
      8 C         139.5714  138.8114  165.7998 C.ar    1  UNL1        0.0220
      9 C         138.7996  138.1482  164.6978 C.ar    1  UNL1        0.0174
     10 C         139.2502  138.2926  163.2745 C.ar    1  UNL1        0.0640
     11 N         138.4783  137.6293  162.1724 N.pl3   1  UNL1       -0.3557
     12 H         137.6759  137.0993  162.3834 H       1  UNL1        0.1424
     13 H         138.7741  137.7241  161.2382 H       1  UNL1        0.1424
     14 C         141.5658  140.2823  166.5804 C.ar    1  UNL1        0.1262
     15 N         141.7520  139.5807  167.8930 N.ar    1  UNL1       -0.2400
     16 C         142.5238  140.2438  168.9950 C.ar    1  UNL1        0.0990
     17 C         143.1095  141.6086  168.7844 C.ar    1  UNL1        0.0230
     18 C         142.9233  142.3102  167.4717 C.ar    1  UNL1        0.0328
     19 C         142.1514  141.6470  166.3697 C.ar    1  UNL1        0.1591
     20 F         141.9652  142.3486  165.0570 F       1  UNL1       -0.2025
     21 C         143.2740  140.2193  159.2111 C.ar    1  UNL1       -0.0059
     22 C         143.7246  140.3636  157.7877 C.ar    1  UNL1        0.0176
     23 C         143.6356  139.1956  156.8508 C.ar    1  UNL1        0.0987
     24 N         143.0960  137.8833  157.3372 N.ar    1  UNL1       -0.2410
     25 C         142.6454  137.7390  158.7606 C.ar    1  UNL1        0.1132
     26 C         142.7344  138.9070  159.6976 C.ar    1  UNL1        0.0660
     27 C         143.5410  143.7233  162.0219 C.3     1  UNL1        0.1127
     28 O         143.0103  145.1182  162.1731 O.3     1  UNL1       -0.3844
     29 C         142.6897  143.8131  160.7901 C.3     1  UNL1        0.1352
     30 O         141.9273  145.0708  160.4953 O.3     1  UNL1       -0.3821
     31 C         142.6007  142.6450  159.8532 C.3     1  UNL1        0.0360
     32 C         143.3630  141.3873  160.1480 C.3     1  UNL1        0.0262
     33 C         144.2143  141.2976  161.3797 C.3     1  UNL1        0.0069
     34 C         144.3033  142.4656  162.3167 C.3     1  UNL1        0.0273
     35 C         145.1546  142.3759  163.5484 C.3     1  UNL1        0.0025
     36 H         142.4259  145.3245  161.4268 H       1  UNL1        0.2103
     37 H         141.4320  144.9624  159.6683 H       1  UNL1        0.2104
     38 C         143.6348  145.2256  164.1395 C.3     1  UNL1        0.0026
     39 C         144.2080  144.1180  163.3061 C.3     1  UNL1        0.0293
@<TRIPOS>BOND
     1    38    39    1
     2    39    27    1
     3    27    28    1
     4    27    29    1
     5    29    30    1
     6    29    31    1
     7    31    32    1
     8    32    21    1
     9    21    22   ar
    10    22    23   ar
    11    23    24   ar
    12    24    25   ar
    13    25    26   ar
    14    26     1    1
    15     1     2   am
    16     2     3    2
    17     2     5    1
    18     5     6   ar
    19     6     7   ar
    20     7    14    1
    21    14    15   ar
    22    15    16   ar
    23    16    17   ar
    24    17    18   ar
    25    18    19   ar
    26    19    20    1
    27     7     8   ar
    28     8     9   ar
    29     9    10   ar
    30    10    11    1
    31    32    33    1
    32    33    34    1
    33    34    35    1
    34    34    27    1
    35    26    21   ar
    36    10     5   ar
    37    19    14   ar
    38    28    36    1
    39    30    37    1
    40     1     4    1
    41    11    12    1
    42    11    13    1
@<TRIPOS>MOLECULE
*****
 39 42 0 0 0
SMALL
GASTEIGER

@<TRIPOS>ATOM
      1 N         139.2068  140.4478  160.9275 N.am    1  UNL1       -0.2781
      2 C         138.3360  140.5893  162.1406 C.2     1  UNL1        0.2685
      3 O         137.1449  141.5004  162.1067 O.2     1  UNL1       -0.2681
      4 H         139.9886  139.8498  160.9498 H       1  UNL1        0.1553
      5 C         138.6562  139.8196  163.3877 C.ar    1  UNL1        0.1475
      6 N         138.9626  140.5496  164.6617 N.ar    1  UNL1       -0.2379
      7 C         139.2828  139.7799  165.9087 C.ar    1  UNL1        0.1013
      8 C         139.2966  138.2802  165.8816 C.ar    1  UNL1        0.0220
      9 C         138.9902  137.5502  164.6076 C.ar    1  UNL1        0.0174
     10 C         138.6700  138.3199  163.3606 C.ar    1  UNL1        0.0640
     11 N         138.3636  137.5899  162.0865 N.pl3   1  UNL1       -0.3557
     12 H         138.3727  136.6056  162.0688 H       1  UNL1        0.1424
     13 H         138.1534  138.0951  161.2681 H       1  UNL1        0.1424
     14 C         139.5893  140.5099  167.1828 C.ar    1  UNL1        0.1262
     15 N         139.1721  139.9267  168.5003 N.ar    1  UNL1       -0.2400
     16 C         139.4785  140.6566  169.7743 C.ar    1  UNL1        0.0990
     17 C         140.2020  141.9698  169.7309 C.ar    1  UNL1        0.0230
     18 C         140.6192  142.5531  168.4134 C.ar    1  UNL1        0.0328
     19 C         140.3128  141.8231  167.1393 C.ar    1  UNL1        0.1591
     20 F         140.7300  142.4064  165.8219 F       1  UNL1       -0.2025
     21 C         139.4393  142.5987  159.4889 C.ar    1  UNL1       -0.0059
     22 C         139.1191  143.3683  158.2419 C.ar    1  UNL1        0.0176
     23 C         138.2462  142.7567  157.1864 C.ar    1  UNL1        0.0987
     24 N         137.6935  141.3755  157.3780 N.ar    1  UNL1       -0.2410
     25 C         138.0137  140.6059  158.6250 C.ar    1  UNL1        0.1132
     26 C         138.8866  141.2175  159.6804 C.ar    1  UNL1        0.0660
     27 C         142.0580  144.4336  162.6552 C.3     1  UNL1        0.1127
     28 O         141.9549  145.3268  163.8559 O.3     1  UNL1       -0.3844
     29 C         140.5818  144.6999  162.6558 C.3     1  UNL1        0.1352
     30 O         139.9785  145.5779  163.7119 O.3     1  UNL1       -0.3821
     31 C         139.7089  144.0883  161.6003 C.3     1  UNL1        0.0360
     32 C         140.3122  143.2103  160.5443 C.3     1  UNL1        0.0262
     33 C         141.7883  142.9440  160.5438 C.3     1  UNL1        0.0069
     34 C         142.6612  143.5556  161.5992 C.3     1  UNL1        0.0273
     35 C         144.1374  143.2892  161.5986 C.3     1  UNL1        0.0025
     36 H         141.0299  145.5882  163.9860 H       1  UNL1        0.2103
     37 H         139.0216  145.6456  163.5682 H       1  UNL1        0.2104
     38 C         143.8829  145.1092  164.3766 C.3     1  UNL1        0.0026
     39 C         143.4984  144.4774  163.0717 C.3     1  UNL1        0.0293
@<TRIPOS>BOND
     1    38    39    1
     2    39    27    1
     3    27    28    1
     4    27    29    1
     5    29    30    1
     6    29    31    1
     7    31    32    1
     8    32    21    1
     9    21    22   ar
    10    22    23   ar
    11    23    24   ar
    12    24    25   ar
    13    25    26   ar
    14    26     1    1
    15     1     2   am
    16     2     3    2
    17     2     5    1
    18     5     6   ar
    19     6     7   ar
    20     7    14    1
    21    14    15   ar
    22    15    16   ar
    23    16    17   ar
    24    17    18   ar
    25    18    19   ar
    26    19    20    1
    27     7     8   ar
    28     8     9   ar
    29     9    10   ar
    30    10    11    1
    31    32    33    1
    32    33    34    1
    33    34    35    1
    34    34    27    1
    35    26    21   ar
    36    10     5   ar
    37    19    14   ar
    38    28    36    1
    39    30    37    1
    40     1     4    1
    41    11    12    1
    42    11    13    1
@<TRIPOS>MOLECULE
*****
 39 42 0 0 0
SMALL
GASTEIGER

@<TRIPOS>ATOM
      1 N         142.2004  139.9164  164.5046 N.am    1  UNL1       -0.2781
      2 C         140.8198  139.6353  163.9900 C.2     1  UNL1        0.2685
      3 O         139.6465  139.6878  164.9230 O.2     1  UNL1       -0.2681
      4 H         142.9705  139.8819  163.8922 H       1  UNL1        0.1553
      5 C         140.6125  139.3018  162.5423 C.ar    1  UNL1        0.1475
      6 N         141.4416  139.9777  161.4907 N.ar    1  UNL1       -0.2379
      7 C         141.2343  139.6442  160.0431 C.ar    1  UNL1        0.1013
      8 C         140.1977  138.6348  159.6470 C.ar    1  UNL1        0.0220
      9 C         139.3686  137.9590  160.6985 C.ar    1  UNL1        0.0174
     10 C         139.5760  138.2925  162.1461 C.ar    1  UNL1        0.0640
     11 N         138.7468  137.6167  163.1978 N.pl3   1  UNL1       -0.3557
     12 H         138.0665  136.9542  162.9378 H       1  UNL1        0.1424
     13 H         138.8829  137.8356  164.1479 H       1  UNL1        0.1424
     14 C         142.0634  140.3200  158.9915 C.ar    1  UNL1        0.1262
     15 N         141.4073  141.2035  157.9722 N.ar    1  UNL1       -0.2400
     16 C         142.2364  141.8793  156.9206 C.ar    1  UNL1        0.0990
     17 C         143.7216  141.6716  156.8883 C.ar    1  UNL1        0.0230
     18 C         144.3777  140.7881  157.9076 C.ar    1  UNL1        0.0328
     19 C         143.5486  140.1123  158.9592 C.ar    1  UNL1        0.1591
     20 F         144.2047  139.2288  159.9785 F       1  UNL1       -0.2025
     21 C         142.2053  141.6557  166.4346 C.ar    1  UNL1       -0.0059
     22 C         142.4126  141.9891  167.8823 C.ar    1  UNL1        0.0176
     23 C         142.8225  140.9167  168.8477 C.ar    1  UNL1        0.0987
     24 N         143.0250  139.5109  168.3654 N.ar    1  UNL1       -0.2410
     25 C         142.8177  139.1775  166.9178 C.ar    1  UNL1        0.1132
     26 C         142.4078  140.2498  165.9524 C.ar    1  UNL1        0.0660
     27 C         140.9756  144.8728  163.5384 C.3     1  UNL1        0.1127
     28 O         141.5843  145.8231  162.5502 O.3     1  UNL1       -0.3844
     29 C         142.4236  144.5101  163.6861 C.3     1  UNL1        0.1352
     30 O         143.4617  145.2197  162.8683 O.3     1  UNL1       -0.3821
     31 C         142.8335  143.4377  164.6515 C.3     1  UNL1        0.0360
     32 C         141.7954  142.7280  165.4692 C.3     1  UNL1        0.0262
     33 C         140.3475  143.0908  165.3216 C.3     1  UNL1        0.0069
     34 C         139.9376  144.1632  164.3562 C.3     1  UNL1        0.0273
     35 C         138.4895  144.5259  164.2086 C.3     1  UNL1        0.0025
     36 H         142.5465  145.7012  162.5348 H       1  UNL1        0.2103
     37 H         144.3395  144.8675  163.0838 H       1  UNL1        0.2104
     38 C         139.7611  146.3041  161.7422 C.3     1  UNL1        0.0026
     39 C         139.7390  145.5656  163.0476 C.3     1  UNL1        0.0293
@<TRIPOS>BOND
     1    38    39    1
     2    39    27    1
     3    27    28    1
     4    27    29    1
     5    29    30    1
     6    29    31    1
     7    31    32    1
     8    32    21    1
     9    21    22   ar
    10    22    23   ar
    11    23    24   ar
    12    24    25   ar
    13    25    26   ar
    14    26     1    1
    15     1     2   am
    16     2     3    2
    17     2     5    1
    18     5     6   ar
    19     6     7   ar
    20     7    14    1
    21    14    15   ar
    22    15    16   ar
    23    16    17   ar
    24    17    18   ar
    25    18    19   ar
    26    19    20    1
    27     7     8   ar
    28     8     9   ar
    29     9    10   ar
    30    10    11    1
    31    32    33    1
    32    33    34    1
    33    34    35    1
    34    34    27    1
    35    26    21   ar
    36    10     5   ar
    37    19    14   ar
    38    28    36    1
    39    30    37    1
    40     1     4    1
    41    11    12    1
    42    11    13    1
@<TRIPOS>MOLECULE
*****
 39 42 0 0 0
SMALL
GASTEIGER

@<TRIPOS>ATOM
      1 N         141.2168  142.6702  159.8066 N.am    1  UNL1       -0.2781
      2 C         141.3585  143.6843  160.9028 C.2     1  UNL1        0.2685
      3 O         142.5214  144.6317  160.9023 O.2     1  UNL1       -0.2681
      4 H         140.4536  142.0484  159.8070 H       1  UNL1        0.1553
      5 C         140.3373  143.7509  161.9995 C.ar    1  UNL1        0.1475
      6 N         140.2494  142.6463  163.0105 N.ar    1  UNL1       -0.2379
      7 C         139.2282  142.7130  164.1072 C.ar    1  UNL1        0.1013
      8 C         138.2949  143.8842  164.1928 C.ar    1  UNL1        0.0220
      9 C         138.3828  144.9887  163.1818 C.ar    1  UNL1        0.0174
     10 C         139.4040  144.9221  162.0851 C.ar    1  UNL1        0.0640
     11 N         139.4920  146.0266  161.0740 N.pl3   1  UNL1       -0.3557
     12 H         138.8795  146.7953  161.1302 H       1  UNL1        0.1424
     13 H         140.1622  145.9829  160.3543 H       1  UNL1        0.1424
     14 C         139.1402  141.6084  165.1183 C.ar    1  UNL1        0.1262
     15 N         139.9418  141.6846  166.3839 N.ar    1  UNL1       -0.2400
     16 C         139.8539  140.5801  167.3949 C.ar    1  UNL1        0.0990
     17 C         138.9644  139.3994  167.1404 C.ar    1  UNL1        0.0230
     18 C         138.1628  139.3233  165.8749 C.ar    1  UNL1        0.0328
     19 C         138.2507  140.4278  164.8638 C.ar    1  UNL1        0.1591
     20 F         137.4491  140.3516  163.5982 F       1  UNL1       -0.2025
     21 C         143.4950  141.8081  158.9028 C.ar    1  UNL1       -0.0059
     22 C         144.5161  141.7415  157.8061 C.ar    1  UNL1        0.0176
     23 C         144.2803  142.4705  156.5165 C.ar    1  UNL1        0.0987
     24 N         143.0234  143.2660  156.3236 N.ar    1  UNL1       -0.2410
     25 C         142.0023  143.3326  157.4203 C.ar    1  UNL1        0.1132
     26 C         142.2381  142.6036  158.7099 C.ar    1  UNL1        0.0660
     27 C         144.2022  139.6211  162.7715 C.3     1  UNL1        0.1127
     28 O         143.8521  138.3242  163.4390 O.3     1  UNL1       -0.3844
     29 C         143.3694  138.9907  161.6950 C.3     1  UNL1        0.1352
     30 O         142.7722  137.6312  161.9081 O.3     1  UNL1       -0.3821
     31 C         143.1336  139.7197  160.4054 C.3     1  UNL1        0.0360
     32 C         143.7307  141.0791  160.1924 C.3     1  UNL1        0.0262
     33 C         144.5636  141.7095  161.2688 C.3     1  UNL1        0.0069
     34 C         144.7993  140.9805  162.5584 C.3     1  UNL1        0.0273
     35 C         145.6322  141.6110  163.6350 C.3     1  UNL1        0.0025
     36 H         143.2987  137.7938  162.8446 H       1  UNL1        0.2103
     37 H         142.2673  137.3729  161.1211 H       1  UNL1        0.2104
     38 C         144.4771  139.0210  165.2843 C.3     1  UNL1        0.0026
     39 C         144.9135  139.8012  164.0798 C.3     1  UNL1        0.0293
@<TRIPOS>BOND
     1    38    39    1
     2    39    27    1
     3    27    28    1
     4    27    29    1
     5    29    30    1
     6    29    31    1
     7    31    32    1
     8    32    21    1
     9    21    22   ar
    10    22    23   ar
    11    23    24   ar
    12    24    25   ar
    13    25    26   ar
    14    26     1    1
    15     1     2   am
    16     2     3    2
    17     2     5    1
    18     5     6   ar
    19     6     7   ar
    20     7    14    1
    21    14    15   ar
    22    15    16   ar
    23    16    17   ar
    24    17    18   ar
    25    18    19   ar
    26    19    20    1
    27     7     8   ar
    28     8     9   ar
    29     9    10   ar
    30    10    11    1
    31    32    33    1
    32    33    34    1
    33    34    35    1
    34    34    27    1
    35    26    21   ar
    36    10     5   ar
    37    19    14   ar
    38    28    36    1
    39    30    37    1
    40     1     4    1
    41    11    12    1
    42    11    13    1
@<TRIPOS>MOLECULE
*****
 39 42 0 0 0
SMALL
GASTEIGER

@<TRIPOS>ATOM
      1 N         139.9170  141.7568  159.5390 N.am    1  UNL1       -0.2781
      2 C         138.9960  141.7306  160.7226 C.2     1  UNL1        0.2685
      3 O         138.0880  142.8936  160.9923 O.2     1  UNL1       -0.2681
      4 H         140.5130  140.9934  159.3620 H       1  UNL1        0.1553
      5 C         138.9831  140.5412  161.6367 C.ar    1  UNL1        0.1475
      6 N         139.9691  140.4505  162.7634 N.ar    1  UNL1       -0.2379
      7 C         139.9561  139.2612  163.6774 C.ar    1  UNL1        0.1013
      8 C         138.9571  138.1627  163.4646 C.ar    1  UNL1        0.0220
      9 C         137.9711  138.2534  162.3379 C.ar    1  UNL1        0.0174
     10 C         137.9841  139.4427  161.4239 C.ar    1  UNL1        0.0640
     11 N         136.9981  139.5335  160.2971 N.pl3   1  UNL1       -0.3557
     12 H         136.3424  138.8125  160.1575 H       1  UNL1        0.1424
     13 H         137.0066  140.3141  159.6972 H       1  UNL1        0.1424
     14 C         140.9421  139.1705  164.8042 C.ar    1  UNL1        0.1262
     15 N         140.6422  139.8290  166.1181 N.ar    1  UNL1       -0.2400
     16 C         141.6281  139.7382  167.2449 C.ar    1  UNL1        0.0990
     17 C         142.9140  138.9890  167.0577 C.ar    1  UNL1        0.0230
     18 C         143.2140  138.3305  165.7438 C.ar    1  UNL1        0.0328
     19 C         142.2280  138.4212  164.6170 C.ar    1  UNL1        0.1591
     20 F         142.5280  137.7627  163.3031 F       1  UNL1       -0.2025
     21 C         140.8545  144.0945  158.9014 C.ar    1  UNL1       -0.0059
     22 C         140.8674  145.2837  157.9874 C.ar    1  UNL1        0.0176
     23 C         139.9558  145.3246  156.7968 C.ar    1  UNL1        0.0987
     24 N         139.0313  144.1762  156.5204 N.ar    1  UNL1       -0.2410
     25 C         139.0184  142.9870  157.4344 C.ar    1  UNL1        0.1132
     26 C         139.9300  142.9461  158.6249 C.ar    1  UNL1        0.0660
     27 C         143.5893  143.9719  162.4730 C.3     1  UNL1        0.1127
     28 O         144.9190  143.4121  162.8833 O.3     1  UNL1       -0.3844
     29 C         143.9842  143.2803  161.2019 C.3     1  UNL1        0.1352
     30 O         145.2907  142.5478  161.1213 O.3     1  UNL1       -0.3821
     31 C         143.0726  143.3212  160.0114 C.3     1  UNL1        0.0360
     32 C         141.7661  144.0536  160.0919 C.3     1  UNL1        0.0262
     33 C         141.3712  144.7452  161.3630 C.3     1  UNL1        0.0069
     34 C         142.2828  144.7044  162.5535 C.3     1  UNL1        0.0273
     35 C         141.8878  145.3960  163.8247 C.3     1  UNL1        0.0025
     36 H         145.3072  142.9234  162.1408 H       1  UNL1        0.2103
     37 H         145.3905  142.1609  160.2374 H       1  UNL1        0.2104
     38 C         144.4289  143.6997  164.9165 C.3     1  UNL1        0.0026
     39 C         143.6561  144.4691  163.8866 C.3     1  UNL1        0.0293
@<TRIPOS>BOND
     1    38    39    1
     2    39    27    1
     3    27    28    1
     4    27    29    1
     5    29    30    1
     6    29    31    1
     7    31    32    1
     8    32    21    1
     9    21    22   ar
    10    22    23   ar
    11    23    24   ar
    12    24    25   ar
    13    25    26   ar
    14    26     1    1
    15     1     2   am
    16     2     3    2
    17     2     5    1
    18     5     6   ar
    19     6     7   ar
    20     7    14    1
    21    14    15   ar
    22    15    16   ar
    23    16    17   ar
    24    17    18   ar
    25    18    19   ar
    26    19    20    1
    27     7     8   ar
    28     8     9   ar
    29     9    10   ar
    30    10    11    1
    31    32    33    1
    32    33    34    1
    33    34    35    1
    34    34    27    1
    35    26    21   ar
    36    10     5   ar
    37    19    14   ar
    38    28    36    1
    39    30    37    1
    40     1     4    1
    41    11    12    1
    42    11    13    1
@<TRIPOS>MOLECULE
*****
 39 42 0 0 0
SMALL
GASTEIGER

@<TRIPOS>ATOM
      1 N         141.8207  139.8232  164.1941 N.am    1  UNL1       -0.2781
      2 C         142.8755  139.8896  163.1297 C.2     1  UNL1        0.2685
      3 O         144.2808  140.2716  163.4892 O.2     1  UNL1       -0.2681
      4 H         140.8984  139.5725  163.9581 H       1  UNL1        0.1553
      5 C         142.5251  139.5739  161.7057 C.ar    1  UNL1        0.1475
      6 N         141.4062  140.3081  161.0283 N.ar    1  UNL1       -0.2379
      7 C         141.0558  139.9924  159.6044 C.ar    1  UNL1        0.1013
      8 C         141.8243  138.9426  158.8579 C.ar    1  UNL1        0.0220
      9 C         142.9432  138.2084  159.5354 C.ar    1  UNL1        0.0174
     10 C         143.2936  138.5240  160.9593 C.ar    1  UNL1        0.0640
     11 N         144.4125  137.7898  161.6368 N.pl3   1  UNL1       -0.3557
     12 H         144.9169  137.1007  161.1469 H       1  UNL1        0.1424
     13 H         144.6425  137.9970  162.5714 H       1  UNL1        0.1424
     14 C         139.9369  140.7267  158.9268 C.ar    1  UNL1        0.1262
     15 N         138.7400  139.9734  158.4267 N.ar    1  UNL1       -0.2400
     16 C         137.6211  140.7075  157.7492 C.ar    1  UNL1        0.0990
     17 C         137.6991  142.1949  157.5718 C.ar    1  UNL1        0.0230
     18 C         138.8959  142.9482  158.0720 C.ar    1  UNL1        0.0328
     19 C         140.0148  142.2141  158.7495 C.ar    1  UNL1        0.1591
     20 F         141.2117  142.9673  159.2496 F       1  UNL1       -0.2025
     21 C         142.0975  141.5530  166.1127 C.ar    1  UNL1       -0.0059
     22 C         142.4479  141.8686  167.5367 C.ar    1  UNL1        0.0176
     23 C         142.8720  140.7701  168.4659 C.ar    1  UNL1        0.0987
     24 N         142.9456  139.3559  167.9711 N.ar    1  UNL1       -0.2410
     25 C         142.5952  139.0404  166.5472 C.ar    1  UNL1        0.1132
     26 C         142.1711  140.1389  165.6180 C.ar    1  UNL1        0.0660
     27 C         140.8254  144.8486  163.3251 C.3     1  UNL1        0.1127
     28 O         141.4214  145.8394  162.3695 O.3     1  UNL1       -0.3844
     29 C         142.2780  144.5003  163.4612 C.3     1  UNL1        0.1352
     30 O         143.3066  145.2506  162.6681 O.3     1  UNL1       -0.3821
     31 C         142.7020  143.4018  164.3904 C.3     1  UNL1        0.0360
     32 C         141.6735  142.6515  165.1835 C.3     1  UNL1        0.0262
     33 C         140.2208  142.9998  165.0475 C.3     1  UNL1        0.0069
     34 C         139.7968  144.0983  164.1183 C.3     1  UNL1        0.0273
     35 C         138.3441  144.4466  163.9822 C.3     1  UNL1        0.0025
     36 H         142.3851  145.7308  162.3504 H       1  UNL1        0.2103
     37 H         144.1890  144.9031  162.8721 H       1  UNL1        0.2104
     38 C         139.6003  146.3488  161.5935 C.3     1  UNL1        0.0026
     39 C         139.5797  145.5410  162.8572 C.3     1  UNL1        0.0293
@<TRIPOS>BOND
     1    38    39    1
     2    39    27    1
     3    27    28    1
     4    27    29    1
     5    29    30    1
     6    29    31    1
     7    31    32    1
     8    32    21    1
     9    21    22   ar
    10    22    23   ar
    11    23    24   ar
    12    24    25   ar
    13    25    26   ar
    14    26     1    1
    15     1     2   am
    16     2     3    2
    17     2     5    1
    18     5     6   ar
    19     6     7   ar
    20     7    14    1
    21    14    15   ar
    22    15    16   ar
    23    16    17   ar
    24    17    18   ar
    25    18    19   ar
    26    19    20    1
    27     7     8   ar
    28     8     9   ar
    29     9    10   ar
    30    10    11    1
    31    32    33    1
    32    33    34    1
    33    34    35    1
    34    34    27    1
    35    26    21   ar
    36    10     5   ar
    37    19    14   ar
    38    28    36    1
    39    30    37    1
    40     1     4    1
    41    11    12    1
    42    11    13    1
