@<TRIPOS>MOLECULE
*****
 36 39 0 0 0
SMALL
GASTEIGER

@<TRIPOS>ATOM
      1 C         139.5580  142.0854  163.7133 C.2     1  UNL1        0.1397
      2 C         139.5859  142.0000  162.2160 C.2     1  UNL1        0.1355
      3 N         140.4689  140.9945  161.5384 N.pl3   1  UNL1       -0.1998
      4 C         141.3240  140.0742  162.3581 C.2     1  UNL1        0.3442
      5 N         141.2961  140.1596  163.8554 N.2     1  UNL1       -0.0580
      6 C         140.4132  141.1652  164.5330 C.3     1  UNL1        0.2692
      7 H         140.4871  140.9384  160.5557 H       1  UNL1        0.2983
      8 C         140.3853  141.2505  166.0304 C.ar    1  UNL1        0.0371
      9 C         141.2409  142.2575  166.7402 C.ar    1  UNL1        0.0030
     10 C         141.2131  142.3429  168.2375 C.ar    1  UNL1        0.0295
     11 C         140.3297  141.4212  169.0250 C.ar    1  UNL1        0.1406
     12 F         140.3019  141.5066  170.5223 F       1  UNL1       -0.2042
     13 C         139.4741  140.4142  168.3152 C.ar    1  UNL1        0.0362
     14 C         139.5019  140.3289  166.8178 C.ar    1  UNL1        0.0372
     15 BR        138.6463  139.3218  166.1080 Br      1  UNL1       -0.0491
     16 C         142.2070  139.0687  161.6805 C.ar    1  UNL1        0.1931
     17 N         141.8773  138.3050  160.4323 N.ar    1  UNL1       -0.2297
     18 C         143.0412  137.4146  160.1125 C.ar    1  UNL1        0.1067
     19 C         144.0904  137.6279  161.1631 C.ar    1  UNL1        0.0577
     20 S         143.5748  138.6501  162.1322 S.2     1  UNL1       -0.0586
     21 C         138.6750  143.0910  164.3909 C.2     1  UNL1        0.3447
     22 O         137.2247  142.7831  164.6181 O.2     1  UNL1       -0.2450
     23 O         139.2424  144.4044  164.8414 O.3     1  UNL1       -0.4455
     24 C         141.6759  144.8512  164.0486 C.3     1  UNL1        0.0513
     25 C         140.2074  145.1451  163.9638 C.3     1  UNL1        0.2089
     26 C         138.7307  142.9203  161.3963 C.3     1  UNL1        0.1406
     27 N         138.9163  142.9908  159.9095 N.3     1  UNL1       -0.2603
     28 C         138.2441  141.9861  159.0213 C.3     1  UNL1        0.0902
     29 C         138.4297  142.0567  157.5344 C.3     1  UNL1        0.0897
     30 N         139.2874  143.1319  156.9359 N.3     1  UNL1       -0.2688
     31 C         139.4729  143.2024  155.4491 C.3     1  UNL1        0.0897
     32 C         139.9595  144.1366  157.8241 C.3     1  UNL1        0.0941
     33 C         139.7740  144.0660  159.3109 C.3     1  UNL1        0.1108
     34 C         140.4461  145.0707  160.1991 C.2     1  UNL1        0.0662
     35 O         139.6594  146.2147  160.7670 O.co2   1  UNL1       -0.5478
     36 O         141.9048  144.9314  160.5194 O.co2   1  UNL1       -0.5478
@<TRIPOS>UNITY_ATOM_ATTR
35 1
charge -1
@<TRIPOS>BOND
     1    24    25    1
     2    25    23    1
     3    23    21    1
     4    21    22    2
     5    21     1    1
     6     1     2    2
     7     2    26    1
     8    26    27    1
     9    27    28    1
    10    28    29    1
    11    29    30    1
    12    30    31    1
    13    30    32    1
    14    32    33    1
    15    33    34    1
    16    34    35   ar
    17    34    36   ar
    18     2     3    1
    19     3     4    1
    20     4    16    1
    21    16    17   ar
    22    17    18   ar
    23    18    19   ar
    24    19    20   ar
    25     4     5    2
    26     5     6    1
    27     6     8    1
    28     8     9   ar
    29     9    10   ar
    30    10    11   ar
    31    11    12    1
    32    11    13   ar
    33    13    14   ar
    34    14    15    1
    35     6     1    1
    36    14     8   ar
    37    33    27    1
    38    20    16   ar
    39     3     7    1
@<TRIPOS>MOLECULE
*****
 36 39 0 0 0
SMALL
GASTEIGER

@<TRIPOS>ATOM
      1 C         140.9930  140.3419  164.6237 C.2     1  UNL1        0.1397
      2 C         140.7536  140.2173  163.1482 C.2     1  UNL1        0.1355
      3 N         140.5250  141.4463  162.3191 N.pl3   1  UNL1       -0.1998
      4 C         140.5358  142.7998  162.9654 C.2     1  UNL1        0.3442
      5 N         140.7752  142.9243  164.4409 N.2     1  UNL1       -0.0580
      6 C         141.0038  141.6954  165.2700 C.3     1  UNL1        0.2692
      7 H         140.3678  141.3645  161.3506 H       1  UNL1        0.2983
      8 C         141.2433  141.8200  166.7456 C.ar    1  UNL1        0.0371
      9 C         140.1275  141.5523  167.7117 C.ar    1  UNL1        0.0030
     10 C         140.3668  141.6769  169.1872 C.ar    1  UNL1        0.0295
     11 C         141.7221  142.0692  169.6967 C.ar    1  UNL1        0.1406
     12 F         141.9615  142.1938  171.1722 F       1  UNL1       -0.2042
     13 C         142.8379  142.3368  168.7306 C.ar    1  UNL1        0.0362
     14 C         142.5985  142.2122  167.2550 C.ar    1  UNL1        0.0372
     15 BR        143.7143  142.4799  166.2889 Br      1  UNL1       -0.0491
     16 C         140.3072  144.0287  162.1363 C.ar    1  UNL1        0.1931
     17 N         140.6574  144.1922  160.6870 N.ar    1  UNL1       -0.2297
     18 C         140.2549  145.5745  160.2659 C.ar    1  UNL1        0.1067
     19 C         139.6559  146.2653  161.4550 C.ar    1  UNL1        0.0577
     20 S         139.6882  145.3100  162.6110 S.2     1  UNL1       -0.0586
     21 C         141.2216  139.1129  165.4528 C.2     1  UNL1        0.3447
     22 O         142.6124  138.7393  165.8723 O.2     1  UNL1       -0.2450
     23 O         140.0595  138.2576  165.8623 O.3     1  UNL1       -0.4455
     24 C         137.6984  138.5320  166.9112 C.3     1  UNL1        0.0513
     25 C         138.6649  138.8061  165.7972 C.3     1  UNL1        0.2089
     26 C         140.7428  138.8638  162.5017 C.3     1  UNL1        0.1406
     27 N         140.7503  138.7467  161.0063 N.3     1  UNL1       -0.2603
     28 C         142.0316  138.4543  160.2833 C.3     1  UNL1        0.0902
     29 C         142.0390  138.3373  158.7878 C.3     1  UNL1        0.0897
     30 N         140.7652  138.5127  158.0155 N.3     1  UNL1       -0.2688
     31 C         140.7726  138.3957  156.5201 C.3     1  UNL1        0.0897
     32 C         139.4839  138.8051  158.7385 C.3     1  UNL1        0.0941
     33 C         139.4764  138.9221  160.2339 C.3     1  UNL1        0.1108
     34 C         138.1951  139.2145  160.9569 C.2     1  UNL1        0.0662
     35 O         137.7015  140.6268  161.0671 O.co2   1  UNL1       -0.5478
     36 O         137.4073  138.0948  161.5697 O.co2   1  UNL1       -0.5478
@<TRIPOS>UNITY_ATOM_ATTR
35 1
charge -1
@<TRIPOS>BOND
     1    24    25    1
     2    25    23    1
     3    23    21    1
     4    21    22    2
     5    21     1    1
     6     1     2    2
     7     2    26    1
     8    26    27    1
     9    27    28    1
    10    28    29    1
    11    29    30    1
    12    30    31    1
    13    30    32    1
    14    32    33    1
    15    33    34    1
    16    34    35   ar
    17    34    36   ar
    18     2     3    1
    19     3     4    1
    20     4    16    1
    21    16    17   ar
    22    17    18   ar
    23    18    19   ar
    24    19    20   ar
    25     4     5    2
    26     5     6    1
    27     6     8    1
    28     8     9   ar
    29     9    10   ar
    30    10    11   ar
    31    11    12    1
    32    11    13   ar
    33    13    14   ar
    34    14    15    1
    35     6     1    1
    36    14     8   ar
    37    33    27    1
    38    20    16   ar
    39     3     7    1
@<TRIPOS>MOLECULE
*****
 36 39 0 0 0
SMALL
GASTEIGER

@<TRIPOS>ATOM
      1 C         140.9671  140.2761  164.4435 C.2     1  UNL1        0.1397
      2 C         140.7511  140.1899  162.9617 C.2     1  UNL1        0.1355
      3 N         140.5223  141.4390  162.1632 N.pl3   1  UNL1       -0.1998
      4 C         140.5095  142.7742  162.8465 C.2     1  UNL1        0.3442
      5 N         140.7255  142.8604  164.3283 N.2     1  UNL1       -0.0580
      6 C         140.9543  141.6113  165.1269 C.3     1  UNL1        0.2692
      7 H         140.3806  141.3824  161.1906 H       1  UNL1        0.2983
      8 C         141.1702  141.6976  166.6088 C.ar    1  UNL1        0.0371
      9 C         140.0493  141.3706  167.5503 C.ar    1  UNL1        0.0030
     10 C         140.2652  141.4568  169.0322 C.ar    1  UNL1        0.0295
     11 C         141.6021  141.8701  169.5725 C.ar    1  UNL1        0.1406
     12 F         141.8180  141.9563  171.0544 F       1  UNL1       -0.2042
     13 C         142.7231  142.1971  168.6310 C.ar    1  UNL1        0.0362
     14 C         142.5071  142.1109  167.1491 C.ar    1  UNL1        0.0372
     15 BR        143.6280  142.4379  166.2075 Br      1  UNL1       -0.0491
     16 C         140.2808  144.0232  162.0480 C.ar    1  UNL1        0.1931
     17 N         139.6800  145.2989  162.5594 N.ar    1  UNL1       -0.2297
     18 C         139.6405  146.2800  161.4254 C.ar    1  UNL1        0.1067
     19 C         140.2169  145.6106  160.2131 C.ar    1  UNL1        0.0577
     20 S         140.6126  144.2158  160.5979 S.2     1  UNL1       -0.0586
     21 C         141.1958  139.0271  165.2420 C.2     1  UNL1        0.3447
     22 O         142.5780  138.6775  165.7080 O.2     1  UNL1       -0.2450
     23 O         140.0424  138.1277  165.5745 O.3     1  UNL1       -0.4455
     24 C         137.7851  138.5609  166.7858 C.3     1  UNL1        0.0513
     25 C         138.6426  138.6665  165.5595 C.3     1  UNL1        0.2089
     26 C         140.7639  138.8547  162.2783 C.3     1  UNL1        0.1406
     27 N         140.8907  138.7773  160.7857 N.3     1  UNL1       -0.2603
     28 C         139.6600  138.7046  159.9312 C.3     1  UNL1        0.0902
     29 C         139.7868  138.6272  158.4385 C.3     1  UNL1        0.0897
     30 N         141.1443  138.6225  157.8004 N.3     1  UNL1       -0.2688
     31 C         141.2711  138.5451  156.3078 C.3     1  UNL1        0.0897
     32 C         142.3750  138.6952  158.6549 C.3     1  UNL1        0.0941
     33 C         142.2482  138.7726  160.1475 C.3     1  UNL1        0.1108
     34 C         143.4789  138.8453  161.0020 C.2     1  UNL1        0.0662
     35 O         144.1849  137.5859  161.4089 O.co2   1  UNL1       -0.5478
     36 O         144.0036  140.1773  161.4495 O.co2   1  UNL1       -0.5478
@<TRIPOS>UNITY_ATOM_ATTR
35 1
charge -1
@<TRIPOS>BOND
     1    24    25    1
     2    25    23    1
     3    23    21    1
     4    21    22    2
     5    21     1    1
     6     1     2    2
     7     2    26    1
     8    26    27    1
     9    27    28    1
    10    28    29    1
    11    29    30    1
    12    30    31    1
    13    30    32    1
    14    32    33    1
    15    33    34    1
    16    34    35   ar
    17    34    36   ar
    18     2     3    1
    19     3     4    1
    20     4    16    1
    21    16    17   ar
    22    17    18   ar
    23    18    19   ar
    24    19    20   ar
    25     4     5    2
    26     5     6    1
    27     6     8    1
    28     8     9   ar
    29     9    10   ar
    30    10    11   ar
    31    11    12    1
    32    11    13   ar
    33    13    14   ar
    34    14    15    1
    35     6     1    1
    36    14     8   ar
    37    33    27    1
    38    20    16   ar
    39     3     7    1
@<TRIPOS>MOLECULE
*****
 36 39 0 0 0
SMALL
GASTEIGER

@<TRIPOS>ATOM
      1 C         142.1589  140.4354  164.1623 C.2     1  UNL1        0.1397
      2 C         142.0805  140.4680  162.6647 C.2     1  UNL1        0.1355
      3 N         141.5830  141.6987  161.9663 N.pl3   1  UNL1       -0.1998
      4 C         141.1639  142.8968  162.7654 C.2     1  UNL1        0.3442
      5 N         141.2422  142.8643  164.2630 N.2     1  UNL1       -0.0580
      6 C         141.7397  141.6335  164.9614 C.3     1  UNL1        0.2692
      7 H         141.5316  141.7200  160.9833 H       1  UNL1        0.2983
      8 C         141.8181  141.6010  166.4591 C.ar    1  UNL1        0.0371
      9 C         143.0339  142.1330  167.1582 C.ar    1  UNL1        0.0030
     10 C         143.1123  142.1005  168.6558 C.ar    1  UNL1        0.0295
     11 C         141.9748  141.5360  169.4543 C.ar    1  UNL1        0.1406
     12 F         142.0532  141.5035  170.9518 F       1  UNL1       -0.2042
     13 C         140.7590  141.0040  168.7551 C.ar    1  UNL1        0.0362
     14 C         140.6806  141.0366  167.2575 C.ar    1  UNL1        0.0372
     15 BR        139.4648  140.5046  166.5584 Br      1  UNL1       -0.0491
     16 C         140.6663  144.1276  162.0670 C.ar    1  UNL1        0.1931
     17 N         139.9759  145.2908  162.7151 N.ar    1  UNL1       -0.2297
     18 C         139.6547  146.2933  161.6465 C.ar    1  UNL1        0.1067
     19 C         140.1467  145.7496  160.3379 C.ar    1  UNL1        0.0577
     20 S         140.7719  144.4111  160.5978 S.2     1  UNL1       -0.0586
     21 C         142.6564  139.2047  164.8607 C.2     1  UNL1        0.3447
     22 O         141.7257  138.0546  165.1079 O.2     1  UNL1       -0.2450
     23 O         144.0846  139.1240  165.3119 O.3     1  UNL1       -0.4455
     24 C         145.5212  140.8987  164.0723 C.3     1  UNL1        0.0513
     25 C         145.1925  139.4636  164.3593 C.3     1  UNL1        0.2089
     26 C         142.4997  139.2698  161.8655 C.3     1  UNL1        0.1406
     27 N         141.8464  138.9823  160.5462 N.3     1  UNL1       -0.2603
     28 C         142.6531  139.0342  159.2827 C.3     1  UNL1        0.0902
     29 C         141.9997  138.7467  157.9634 C.3     1  UNL1        0.0897
     30 N         140.5397  138.4072  157.9076 N.3     1  UNL1       -0.2688
     31 C         139.8864  138.1197  156.5884 C.3     1  UNL1        0.0897
     32 C         139.7331  138.3553  159.1712 C.3     1  UNL1        0.0941
     33 C         140.3864  138.6428  160.4905 C.3     1  UNL1        0.1108
     34 C         139.5797  138.5908  161.7540 C.2     1  UNL1        0.0662
     35 O         138.7923  139.7905  162.1910 O.co2   1  UNL1       -0.5478
     36 O         139.5603  137.3393  162.5805 O.co2   1  UNL1       -0.5478
@<TRIPOS>UNITY_ATOM_ATTR
35 1
charge -1
@<TRIPOS>BOND
     1    24    25    1
     2    25    23    1
     3    23    21    1
     4    21    22    2
     5    21     1    1
     6     1     2    2
     7     2    26    1
     8    26    27    1
     9    27    28    1
    10    28    29    1
    11    29    30    1
    12    30    31    1
    13    30    32    1
    14    32    33    1
    15    33    34    1
    16    34    35   ar
    17    34    36   ar
    18     2     3    1
    19     3     4    1
    20     4    16    1
    21    16    17   ar
    22    17    18   ar
    23    18    19   ar
    24    19    20   ar
    25     4     5    2
    26     5     6    1
    27     6     8    1
    28     8     9   ar
    29     9    10   ar
    30    10    11   ar
    31    11    12    1
    32    11    13   ar
    33    13    14   ar
    34    14    15    1
    35     6     1    1
    36    14     8   ar
    37    33    27    1
    38    20    16   ar
    39     3     7    1
@<TRIPOS>MOLECULE
*****
 36 39 0 0 0
SMALL
GASTEIGER

@<TRIPOS>ATOM
      1 C         139.1586  141.3039  160.9606 C.2     1  UNL1        0.1397
      2 C         139.2755  140.6618  159.6101 C.2     1  UNL1        0.1355
      3 N         139.3604  141.5146  158.3790 N.pl3   1  UNL1       -0.1998
      4 C         139.3284  143.0095  158.4984 C.2     1  UNL1        0.3442
      5 N         139.2115  143.6516  159.8490 N.2     1  UNL1       -0.0580
      6 C         139.1266  142.7988  161.0801 C.3     1  UNL1        0.2692
      7 H         139.4372  141.0931  157.4926 H       1  UNL1        0.2983
      8 C         139.0096  143.4410  162.4306 C.ar    1  UNL1        0.0371
      9 C         137.6604  143.6228  163.0603 C.ar    1  UNL1        0.0030
     10 C         137.5434  144.2650  164.4108 C.ar    1  UNL1        0.0295
     11 C         138.7757  144.7253  165.1317 C.ar    1  UNL1        0.1406
     12 F         138.6587  145.3675  166.4822 F       1  UNL1       -0.2042
     13 C         140.1249  144.5435  164.5020 C.ar    1  UNL1        0.0362
     14 C         140.2419  143.9013  163.1515 C.ar    1  UNL1        0.0372
     15 BR        141.5911  143.7195  162.5218 Br      1  UNL1       -0.0491
     16 C         139.4133  143.8622  157.2673 C.ar    1  UNL1        0.1931
     17 N         140.1275  145.1762  157.1525 N.ar    1  UNL1       -0.2297
     18 C         139.9545  145.6768  155.7491 C.ar    1  UNL1        0.1067
     19 C         139.1334  144.6722  154.9966 C.ar    1  UNL1        0.0577
     20 S         138.7989  143.5507  155.9349 S.2     1  UNL1       -0.0586
     21 C         139.0737  140.4512  162.1917 C.2     1  UNL1        0.3447
     22 O         137.7789  139.7878  162.5567 O.2     1  UNL1       -0.2450
     23 O         140.2836  140.2618  163.0578 O.3     1  UNL1       -0.4455
     24 C         139.2129  141.0007  165.3068 C.3     1  UNL1        0.0513
     25 C         140.1259  140.0907  164.5397 C.3     1  UNL1        0.2089
     26 C         139.3076  139.1669  159.4906 C.3     1  UNL1        0.1406
     27 N         140.3236  138.5068  158.6063 N.3     1  UNL1       -0.2603
     28 C         139.9852  138.1941  157.1788 C.3     1  UNL1        0.0902
     29 C         141.0013  137.5339  156.2945 C.3     1  UNL1        0.0897
     30 N         142.3556  137.1866  156.8377 N.3     1  UNL1       -0.2688
     31 C         143.3716  136.5265  155.9534 C.3     1  UNL1        0.0897
     32 C         142.6939  137.4993  158.2652 C.3     1  UNL1        0.0941
     33 C         141.6780  138.1594  159.1495 C.3     1  UNL1        0.1108
     34 C         142.0163  138.4721  160.5770 C.2     1  UNL1        0.0662
     35 O         142.7226  139.7509  160.9175 O.co2   1  UNL1       -0.5478
     36 O         141.6484  137.5061  161.6639 O.co2   1  UNL1       -0.5478
@<TRIPOS>UNITY_ATOM_ATTR
35 1
charge -1
@<TRIPOS>BOND
     1    24    25    1
     2    25    23    1
     3    23    21    1
     4    21    22    2
     5    21     1    1
     6     1     2    2
     7     2    26    1
     8    26    27    1
     9    27    28    1
    10    28    29    1
    11    29    30    1
    12    30    31    1
    13    30    32    1
    14    32    33    1
    15    33    34    1
    16    34    35   ar
    17    34    36   ar
    18     2     3    1
    19     3     4    1
    20     4    16    1
    21    16    17   ar
    22    17    18   ar
    23    18    19   ar
    24    19    20   ar
    25     4     5    2
    26     5     6    1
    27     6     8    1
    28     8     9   ar
    29     9    10   ar
    30    10    11   ar
    31    11    12    1
    32    11    13   ar
    33    13    14   ar
    34    14    15    1
    35     6     1    1
    36    14     8   ar
    37    33    27    1
    38    20    16   ar
    39     3     7    1
@<TRIPOS>MOLECULE
*****
 36 39 0 0 0
SMALL
GASTEIGER

@<TRIPOS>ATOM
      1 C         139.2533  140.9308  160.8589 C.2     1  UNL1        0.1397
      2 C         139.2825  140.1773  159.5623 C.2     1  UNL1        0.1355
      3 N         138.9209  140.8718  158.2829 N.pl3   1  UNL1       -0.1998
      4 C         138.5301  142.3199  158.3001 C.2     1  UNL1        0.3442
      5 N         138.5009  143.0734  159.5968 N.2     1  UNL1       -0.0580
      6 C         138.8625  142.3788  160.8762 C.3     1  UNL1        0.2692
      7 H         138.9400  140.3772  157.4318 H       1  UNL1        0.2983
      8 C         138.8333  143.1324  162.1728 C.ar    1  UNL1        0.0371
      9 C         137.6085  143.0896  163.0378 C.ar    1  UNL1        0.0030
     10 C         137.5793  143.8431  164.3344 C.ar    1  UNL1        0.0295
     11 C         138.7749  144.6396  164.7662 C.ar    1  UNL1        0.1406
     12 F         138.7456  145.3931  166.0628 F       1  UNL1       -0.2042
     13 C         139.9996  144.6825  163.9012 C.ar    1  UNL1        0.0362
     14 C         140.0288  143.9289  162.6045 C.ar    1  UNL1        0.0372
     15 BR        141.2536  143.9717  161.7396 Br      1  UNL1       -0.0491
     16 C         138.1684  143.0144  157.0207 C.ar    1  UNL1        0.1931
     17 N         138.9145  144.1559  156.3958 N.ar    1  UNL1       -0.2297
     18 C         138.2044  144.5364  155.1305 C.ar    1  UNL1        0.1067
     19 C         137.0195  143.6301  154.9734 C.ar    1  UNL1        0.0577
     20 S         136.9973  142.6895  156.1416 S.2     1  UNL1       -0.0586
     21 C         139.6149  140.2362  162.1383 C.2     1  UNL1        0.3447
     22 O         141.0298  140.2687  162.6353 O.2     1  UNL1       -0.2450
     23 O         138.5617  139.5092  162.9206 O.3     1  UNL1       -0.4455
     24 C         139.2202  137.7083  164.6738 C.3     1  UNL1        0.0513
     25 C         138.7627  138.0698  163.2916 C.3     1  UNL1        0.2089
     26 C         139.6733  138.7291  159.5450 C.3     1  UNL1        0.1406
     27 N         140.4931  138.1870  158.4119 N.3     1  UNL1       -0.2603
     28 C         139.8195  137.7144  157.1577 C.3     1  UNL1        0.0902
     29 C         140.6394  137.1723  156.0246 C.3     1  UNL1        0.0897
     30 N         142.1329  137.1028  156.1456 N.3     1  UNL1       -0.2688
     31 C         142.9527  136.5607  155.0125 C.3     1  UNL1        0.0897
     32 C         142.8065  137.5754  157.3998 C.3     1  UNL1        0.0941
     33 C         141.9867  138.1175  158.5329 C.3     1  UNL1        0.1108
     34 C         142.6603  138.5901  159.7870 C.2     1  UNL1        0.0662
     35 O         143.2519  139.9673  159.8473 O.co2   1  UNL1       -0.5478
     36 O         142.7423  137.6856  160.9808 O.co2   1  UNL1       -0.5478
@<TRIPOS>UNITY_ATOM_ATTR
35 1
charge -1
@<TRIPOS>BOND
     1    24    25    1
     2    25    23    1
     3    23    21    1
     4    21    22    2
     5    21     1    1
     6     1     2    2
     7     2    26    1
     8    26    27    1
     9    27    28    1
    10    28    29    1
    11    29    30    1
    12    30    31    1
    13    30    32    1
    14    32    33    1
    15    33    34    1
    16    34    35   ar
    17    34    36   ar
    18     2     3    1
    19     3     4    1
    20     4    16    1
    21    16    17   ar
    22    17    18   ar
    23    18    19   ar
    24    19    20   ar
    25     4     5    2
    26     5     6    1
    27     6     8    1
    28     8     9   ar
    29     9    10   ar
    30    10    11   ar
    31    11    12    1
    32    11    13   ar
    33    13    14   ar
    34    14    15    1
    35     6     1    1
    36    14     8   ar
    37    33    27    1
    38    20    16   ar
    39     3     7    1
@<TRIPOS>MOLECULE
*****
 36 39 0 0 0
SMALL
GASTEIGER

@<TRIPOS>ATOM
      1 C         140.6931  141.6489  160.8698 C.2     1  UNL1        0.1397
      2 C         140.9980  140.9118  159.5995 C.2     1  UNL1        0.1355
      3 N         140.0079  140.9177  158.4728 N.pl3   1  UNL1       -0.1998
      4 C         138.7128  141.6607  158.6163 C.2     1  UNL1        0.3442
      5 N         138.4078  142.3978  159.8866 N.2     1  UNL1       -0.0580
      6 C         139.3980  142.3919  161.0133 C.3     1  UNL1        0.2692
      7 H         140.2080  140.4339  157.6390 H       1  UNL1        0.2983
      8 C         139.0929  143.1290  162.2837 C.ar    1  UNL1        0.0371
      9 C         139.6701  144.4939  162.5158 C.ar    1  UNL1        0.0030
     10 C         139.3651  145.2311  163.7861 C.ar    1  UNL1        0.0295
     11 C         138.4830  144.6033  164.8243 C.ar    1  UNL1        0.1406
     12 F         138.1780  145.3404  166.0945 F       1  UNL1       -0.2042
     13 C         137.9058  143.2384  164.5921 C.ar    1  UNL1        0.0362
     14 C         138.2108  142.5012  163.3218 C.ar    1  UNL1        0.0372
     15 BR        137.6337  141.1363  163.0896 Br      1  UNL1       -0.0491
     16 C         137.7226  141.6666  157.4896 C.ar    1  UNL1        0.1931
     17 N         136.7424  140.5766  157.1715 N.ar    1  UNL1       -0.2297
     18 C         135.9528  140.9999  155.9684 C.ar    1  UNL1        0.1067
     19 C         136.4450  142.3514  155.5429 C.ar    1  UNL1        0.0577
     20 S         137.5388  142.7634  156.4830 S.2     1  UNL1       -0.0586
     21 C         141.6832  141.6430  161.9966 C.2     1  UNL1        0.3447
     22 O         141.6219  140.5704  163.0433 O.2     1  UNL1       -0.2450
     23 O         142.7347  142.7097  162.0766 O.3     1  UNL1       -0.4455
     24 C         143.3102  144.8140  163.4876 C.3     1  UNL1        0.0513
     25 C         143.0684  143.3363  163.3980 C.3     1  UNL1        0.2089
     26 C         142.2932  140.1688  159.4559 C.3     1  UNL1        0.1406
     27 N         143.3815  140.7204  158.5835 N.3     1  UNL1       -0.2603
     28 C         144.1745  141.9106  159.0358 C.3     1  UNL1        0.0902
     29 C         145.2629  142.4622  158.1632 C.3     1  UNL1        0.0897
     30 N         145.5583  141.8236  156.8386 N.3     1  UNL1       -0.2688
     31 C         146.6467  142.3751  155.9661 C.3     1  UNL1        0.0897
     32 C         144.7653  140.6333  156.3863 C.3     1  UNL1        0.0941
     33 C         143.6769  140.0817  157.2587 C.3     1  UNL1        0.1108
     34 C         142.8840  138.8915  156.8065 C.2     1  UNL1        0.0662
     35 O         141.4883  139.0734  156.2876 O.co2   1  UNL1       -0.5478
     36 O         143.4866  137.5195  156.8730 O.co2   1  UNL1       -0.5478
@<TRIPOS>UNITY_ATOM_ATTR
35 1
charge -1
@<TRIPOS>BOND
     1    24    25    1
     2    25    23    1
     3    23    21    1
     4    21    22    2
     5    21     1    1
     6     1     2    2
     7     2    26    1
     8    26    27    1
     9    27    28    1
    10    28    29    1
    11    29    30    1
    12    30    31    1
    13    30    32    1
    14    32    33    1
    15    33    34    1
    16    34    35   ar
    17    34    36   ar
    18     2     3    1
    19     3     4    1
    20     4    16    1
    21    16    17   ar
    22    17    18   ar
    23    18    19   ar
    24    19    20   ar
    25     4     5    2
    26     5     6    1
    27     6     8    1
    28     8     9   ar
    29     9    10   ar
    30    10    11   ar
    31    11    12    1
    32    11    13   ar
    33    13    14   ar
    34    14    15    1
    35     6     1    1
    36    14     8   ar
    37    33    27    1
    38    20    16   ar
    39     3     7    1
@<TRIPOS>MOLECULE
*****
 36 39 0 0 0
SMALL
GASTEIGER

@<TRIPOS>ATOM
      1 C         139.9751  142.8206  160.0096 C.2     1  UNL1        0.1397
      2 C         139.1174  142.5775  158.8033 C.2     1  UNL1        0.1355
      3 N         139.1540  143.5374  157.6513 N.pl3   1  UNL1       -0.1998
      4 C         140.0483  144.7404  157.7055 C.2     1  UNL1        0.3442
      5 N         140.9060  144.9834  158.9118 N.2     1  UNL1       -0.0580
      6 C         140.8694  144.0235  160.0639 C.3     1  UNL1        0.2692
      7 H         138.5910  143.3779  156.8595 H       1  UNL1        0.2983
      8 C         141.7272  144.2666  161.2702 C.ar    1  UNL1        0.0371
      9 C         141.2014  145.0856  162.4116 C.ar    1  UNL1        0.0030
     10 C         142.0591  145.3287  163.6179 C.ar    1  UNL1        0.0295
     11 C         143.4427  144.7528  163.6828 C.ar    1  UNL1        0.1406
     12 F         144.3004  144.9959  164.8891 F       1  UNL1       -0.2042
     13 C         143.9685  143.9339  162.5414 C.ar    1  UNL1        0.0362
     14 C         143.1107  143.6908  161.3351 C.ar    1  UNL1        0.0372
     15 BR        143.6365  142.8718  160.1937 Br      1  UNL1       -0.0491
     16 C         140.0849  145.7003  156.5535 C.ar    1  UNL1        0.1931
     17 N         139.3601  147.0112  156.4747 N.ar    1  UNL1       -0.2297
     18 C         139.6800  147.6390  155.1505 C.ar    1  UNL1        0.1067
     19 C         140.6025  146.7161  154.4108 C.ar    1  UNL1        0.0577
     20 S         140.8527  145.5179  155.2779 S.2     1  UNL1       -0.0586
     21 C         139.9385  141.8606  161.1616 C.2     1  UNL1        0.3447
     22 O         140.9355  140.7426  161.2383 O.2     1  UNL1       -0.2450
     23 O         138.9048  142.0187  162.2371 O.3     1  UNL1       -0.4455
     24 C         137.8002  144.0661  163.3938 C.3     1  UNL1        0.0513
     25 C         137.9508  143.1755  162.1962 C.3     1  UNL1        0.2089
     26 C         138.2230  141.3745  158.7490 C.3     1  UNL1        0.1406
     27 N         138.5724  140.2198  157.8577 N.3     1  UNL1       -0.2603
     28 C         139.4745  139.1313  158.3593 C.3     1  UNL1        0.0902
     29 C         139.8239  137.9765  157.4680 C.3     1  UNL1        0.0897
     30 N         139.2713  137.9102  156.0751 N.3     1  UNL1       -0.2688
     31 C         139.6207  136.7555  155.1838 C.3     1  UNL1        0.0897
     32 C         138.3692  138.9987  155.5735 C.3     1  UNL1        0.0941
     33 C         138.0198  140.1534  156.4648 C.3     1  UNL1        0.1108
     34 C         137.1177  141.2418  155.9632 C.2     1  UNL1        0.0662
     35 O         137.6969  142.4241  155.2442 O.co2   1  UNL1       -0.5478
     36 O         135.6365  141.1480  156.1805 O.co2   1  UNL1       -0.5478
@<TRIPOS>UNITY_ATOM_ATTR
35 1
charge -1
@<TRIPOS>BOND
     1    24    25    1
     2    25    23    1
     3    23    21    1
     4    21    22    2
     5    21     1    1
     6     1     2    2
     7     2    26    1
     8    26    27    1
     9    27    28    1
    10    28    29    1
    11    29    30    1
    12    30    31    1
    13    30    32    1
    14    32    33    1
    15    33    34    1
    16    34    35   ar
    17    34    36   ar
    18     2     3    1
    19     3     4    1
    20     4    16    1
    21    16    17   ar
    22    17    18   ar
    23    18    19   ar
    24    19    20   ar
    25     4     5    2
    26     5     6    1
    27     6     8    1
    28     8     9   ar
    29     9    10   ar
    30    10    11   ar
    31    11    12    1
    32    11    13   ar
    33    13    14   ar
    34    14    15    1
    35     6     1    1
    36    14     8   ar
    37    33    27    1
    38    20    16   ar
    39     3     7    1
@<TRIPOS>MOLECULE
*****
 36 39 0 0 0
SMALL
GASTEIGER

@<TRIPOS>ATOM
      1 C         140.7693  140.9372  161.4933 C.2     1  UNL1        0.1397
      2 C         140.2602  141.3547  160.1456 C.2     1  UNL1        0.1355
      3 N         140.6535  140.5805  158.9224 N.pl3   1  UNL1       -0.1998
      4 C         141.5559  139.3889  159.0470 C.2     1  UNL1        0.3442
      5 N         142.0651  138.9714  160.3948 N.2     1  UNL1       -0.0580
      6 C         141.6718  139.7455  161.6179 C.3     1  UNL1        0.2692
      7 H         140.3193  140.8546  158.0379 H       1  UNL1        0.2983
      8 C         142.1810  139.3280  162.9657 C.ar    1  UNL1        0.0371
      9 C         143.4481  139.9220  163.5057 C.ar    1  UNL1        0.0030
     10 C         143.9573  139.5045  164.8534 C.ar    1  UNL1        0.0295
     11 C         143.1994  138.4930  165.6611 C.ar    1  UNL1        0.1406
     12 F         143.7087  138.0755  167.0088 F       1  UNL1       -0.2042
     13 C         141.9323  137.8990  165.1212 C.ar    1  UNL1        0.0362
     14 C         141.4231  138.3165  163.7734 C.ar    1  UNL1        0.0372
     15 BR        140.1560  137.7225  163.2334 Br      1  UNL1       -0.0491
     16 C         141.9492  138.6148  157.8239 C.ar    1  UNL1        0.1931
     17 N         143.3514  138.3287  157.3746 N.ar    1  UNL1       -0.2297
     18 C         143.2782  137.5279  156.1083 C.ar    1  UNL1        0.1067
     19 C         141.8307  137.3191  155.7750 C.ar    1  UNL1        0.0577
     20 S         141.0093  137.9908  156.8353 S.2     1  UNL1       -0.0586
     21 C         140.3760  141.7113  162.7164 C.2     1  UNL1        0.3447
     22 O         141.2445  142.8319  163.2062 O.2     1  UNL1       -0.2450
     23 O         139.1143  141.3648  163.4498 O.3     1  UNL1       -0.4455
     24 C         137.7733  143.5739  163.1820 C.3     1  UNL1        0.0513
     25 C         138.2702  142.4524  164.0453 C.3     1  UNL1        0.2089
     26 C         139.3577  142.5463  160.0209 C.3     1  UNL1        0.1406
     27 N         139.5365  143.5068  158.8828 N.3     1  UNL1       -0.2603
     28 C         138.9120  143.2156  157.5504 C.3     1  UNL1        0.0902
     29 C         139.0909  144.1761  156.4122 C.3     1  UNL1        0.0897
     30 N         139.8943  145.4278  156.6064 N.3     1  UNL1       -0.2688
     31 C         140.0731  146.3883  155.4682 C.3     1  UNL1        0.0897
     32 C         140.5188  145.7191  157.9387 C.3     1  UNL1        0.0941
     33 C         140.3399  144.7586  159.0769 C.3     1  UNL1        0.1108
     34 C         140.9645  145.0498  160.4093 C.2     1  UNL1        0.0662
     35 O         140.1867  145.7907  161.4563 O.co2   1  UNL1       -0.5478
     36 O         142.3667  144.6002  160.6946 O.co2   1  UNL1       -0.5478
@<TRIPOS>UNITY_ATOM_ATTR
35 1
charge -1
@<TRIPOS>BOND
     1    24    25    1
     2    25    23    1
     3    23    21    1
     4    21    22    2
     5    21     1    1
     6     1     2    2
     7     2    26    1
     8    26    27    1
     9    27    28    1
    10    28    29    1
    11    29    30    1
    12    30    31    1
    13    30    32    1
    14    32    33    1
    15    33    34    1
    16    34    35   ar
    17    34    36   ar
    18     2     3    1
    19     3     4    1
    20     4    16    1
    21    16    17   ar
    22    17    18   ar
    23    18    19   ar
    24    19    20   ar
    25     4     5    2
    26     5     6    1
    27     6     8    1
    28     8     9   ar
    29     9    10   ar
    30    10    11   ar
    31    11    12    1
    32    11    13   ar
    33    13    14   ar
    34    14    15    1
    35     6     1    1
    36    14     8   ar
    37    33    27    1
    38    20    16   ar
    39     3     7    1
