@<TRIPOS>MOLECULE
*****
 36 43 0 0 0
SMALL
GASTEIGER

@<TRIPOS>ATOM
      1 C         144.0889  130.7482  154.6120 C.2     1  UNL1       -0.0198
      2 C         144.8184  131.1194  155.8689 C.2     1  UNL1       -0.0042
      3 C         144.5093  132.4137  156.5611 C.2     1  UNL1        0.0006
      4 C         143.4706  133.3369  155.9964 C.2     1  UNL1        0.0111
      5 C         142.9560  134.6691  156.4548 C.2     1  UNL1       -0.0044
      6 C         141.9083  135.1214  155.4812 C.2     1  UNL1        0.0689
      7 N         141.7755  134.0686  154.4210 N.2     1  UNL1       -0.2526
      8 C         142.7411  132.9657  154.7395 C.2     1  UNL1        0.0627
      9 C         143.0502  131.6713  154.0473 C.3     1  UNL1        0.0717
     10 C         141.2107  136.4334  155.6858 C.3     1  UNL1        0.0949
     11 N         141.5607  137.2933  156.8641 N.3     1  UNL1       -0.2887
     12 C         142.6083  136.8410  157.8377 C.3     1  UNL1        0.1161
     13 C         143.3060  135.5289  157.6331 C.3     1  UNL1        0.0510
     14 H         140.7013  137.4264  157.3970 H       1  UNL1        0.1239
     15 C         140.1631  136.8856  154.7122 C.3     1  UNL1        0.0252
     16 C         138.7721  137.1800  155.1902 C.3     1  UNL1        0.0339
     17 C         137.7245  137.6322  154.2165 C.3     1  UNL1        0.1422
     18 O         138.0678  137.7901  152.7650 O.3     1  UNL1       -0.3538
     19 C         139.4588  137.4957  152.2870 C.3     1  UNL1        0.1422
     20 C         140.5065  137.0435  153.2606 C.3     1  UNL1        0.0339
     21 C         142.9583  137.7008  159.0159 C.ar    1  UNL1        0.1314
     22 N         142.8131  137.3199  160.4595 N.ar    1  UNL1       -0.2341
     23 C         143.2801  138.4762  161.2932 C.ar    1  UNL1        0.0765
     24 C         143.7139  139.5717  160.3649 C.ar    1  UNL1        0.0882
     25 N         143.5150  139.0925  158.9575 N.ar    1  UNL1       -0.3388
     26 H         143.7148  139.6019  158.1391 H       1  UNL1        0.1672
     27 C         143.3083  138.5279  162.7920 C.3     1  UNL1        0.0369
     28 C         142.1697  137.9561  163.5837 C.3     1  UNL1        0.0056
     29 C         142.1979  138.0078  165.0825 C.3     1  UNL1        0.0004
     30 C         143.3645  138.6312  165.7898 C.3     1  UNL1        0.0000
     31 C         144.5032  139.2030  164.9980 C.3     1  UNL1        0.0004
     32 C         142.3340  138.0228  162.8277 C.3     1  UNL1        0.0000
     33 C         141.0030  137.3327  162.8765 C.3     1  UNL1        0.0004
     34 C         141.0311  137.3844  164.3753 C.3     1  UNL1        0.0000
     35 C         142.1415  137.9045  162.0849 C.3     1  UNL1        0.0056
     36 C         144.4750  139.1513  163.4992 C.3     1  UNL1        0.0056
@<TRIPOS>BOND
     1     1     2    2
     2     2     3    1
     3     3     4    2
     4     4     5    1
     5     5     6    2
     6     6     7    1
     7     7     8    2
     8     8     9    1
     9     6    10    1
    10    10    15    1
    11    15    16    1
    12    16    17    1
    13    17    18    1
    14    18    19    1
    15    19    20    1
    16    10    11    1
    17    11    12    1
    18    12    21    1
    19    21    22   ar
    20    22    23   ar
    21    23    27    1
    22    27    28    1
    23    28    29    1
    24    29    30    1
    25    30    31    1
    26    31    32    1
    27    32    33    1
    28    33    34    1
    29    33    35    1
    30    31    36    1
    31    23    24   ar
    32    24    25   ar
    33    12    13    1
    34     9     1    1
    35    20    15    1
    36    25    21   ar
    37     8     4    1
    38    35    27    1
    39    13     5    1
    40    36    27    1
    41    34    29    1
    42    11    14    1
    43    25    26    1
@<TRIPOS>MOLECULE
*****
 36 43 0 0 0
SMALL
GASTEIGER

@<TRIPOS>ATOM
      1 C         139.9665  147.7750  154.2539 C.2     1  UNL1       -0.0198
      2 C         139.1242  148.1458  155.4384 C.2     1  UNL1       -0.0042
      3 C         139.2222  147.3511  156.7068 C.2     1  UNL1        0.0006
      4 C         140.1626  146.1855  156.7907 C.2     1  UNL1        0.0111
      5 C         140.4725  145.2236  157.8992 C.2     1  UNL1       -0.0044
      6 C         141.5063  144.2583  157.3999 C.2     1  UNL1        0.0689
      7 N         141.8354  144.6235  155.9827 N.2     1  UNL1       -0.2526
      8 C         141.0049  145.8146  155.6062 C.2     1  UNL1        0.0627
      9 C         140.9068  146.6094  154.3379 C.3     1  UNL1        0.0717
     10 C         142.0145  143.1715  158.3001 C.3     1  UNL1        0.0949
     11 N         141.4889  143.0499  159.6998 N.3     1  UNL1       -0.2887
     12 C         140.4550  144.0152  160.1991 C.3     1  UNL1        0.1161
     13 C         139.9468  145.1021  159.2988 C.3     1  UNL1        0.0510
     14 H         142.2918  143.1295  160.3238 H       1  UNL1        0.1239
     15 C         143.0483  142.2062  157.8008 C.3     1  UNL1        0.0252
     16 C         144.4833  142.6308  157.6982 C.3     1  UNL1        0.0339
     17 C         145.5172  141.6655  157.1988 C.3     1  UNL1        0.1422
     18 O         145.1161  140.2756  156.8022 O.3     1  UNL1       -0.3538
     19 C         143.6811  139.8511  156.9049 C.3     1  UNL1        0.1422
     20 C         142.6472  140.8164  157.4042 C.3     1  UNL1        0.0339
     21 C         139.9293  143.8937  161.5987 C.ar    1  UNL1        0.1314
     22 N         140.3661  142.8859  162.6203 N.ar    1  UNL1       -0.2341
     23 C         139.5813  143.1280  163.8754 C.ar    1  UNL1        0.0765
     24 C         138.6594  144.2855  163.6296 C.ar    1  UNL1        0.0882
     25 N         138.8745  144.7587  162.2226 N.ar    1  UNL1       -0.3388
     26 H         138.4056  145.5058  161.7853 H       1  UNL1        0.1672
     27 C         139.6979  142.3494  165.1522 C.3     1  UNL1        0.0369
     28 C         138.9705  141.0465  165.3052 C.3     1  UNL1        0.0056
     29 C         139.0870  140.2679  166.5818 C.3     1  UNL1        0.0004
     30 C         139.9310  140.7920  167.7057 C.3     1  UNL1        0.0000
     31 C         140.6585  142.0950  167.5527 C.3     1  UNL1        0.0004
     32 C         139.0337  141.5772  164.7419 C.3     1  UNL1        0.0000
     33 C         138.1264  140.5224  164.1813 C.3     1  UNL1        0.0004
     34 C         138.2430  139.7437  165.4581 C.3     1  UNL1        0.0000
     35 C         138.8539  141.8252  164.0284 C.3     1  UNL1        0.0056
     36 C         140.5419  142.8736  166.2759 C.3     1  UNL1        0.0056
@<TRIPOS>BOND
     1     1     2    2
     2     2     3    1
     3     3     4    2
     4     4     5    1
     5     5     6    2
     6     6     7    1
     7     7     8    2
     8     8     9    1
     9     6    10    1
    10    10    15    1
    11    15    16    1
    12    16    17    1
    13    17    18    1
    14    18    19    1
    15    19    20    1
    16    10    11    1
    17    11    12    1
    18    12    21    1
    19    21    22   ar
    20    22    23   ar
    21    23    27    1
    22    27    28    1
    23    28    29    1
    24    29    30    1
    25    30    31    1
    26    31    32    1
    27    32    33    1
    28    33    34    1
    29    33    35    1
    30    31    36    1
    31    23    24   ar
    32    24    25   ar
    33    12    13    1
    34     9     1    1
    35    20    15    1
    36    25    21   ar
    37     8     4    1
    38    35    27    1
    39    13     5    1
    40    36    27    1
    41    34    29    1
    42    11    14    1
    43    25    26    1
@<TRIPOS>MOLECULE
*****
 36 43 0 0 0
SMALL
GASTEIGER

@<TRIPOS>ATOM
      1 C         137.9221  137.8872  152.3926 C.2     1  UNL1       -0.0198
      2 C         137.9878  138.9930  153.4040 C.2     1  UNL1       -0.0042
      3 C         138.9356  138.8946  154.5624 C.2     1  UNL1        0.0006
      4 C         139.8177  137.6904  154.7095 C.2     1  UNL1        0.0111
      5 C         140.8427  137.3168  155.7389 C.2     1  UNL1       -0.0044
      6 C         141.4106  135.9800  155.3638 C.2     1  UNL1        0.0689
      7 N         140.7365  135.5275  154.1026 N.2     1  UNL1       -0.2526
      8 C         139.7520  136.5846  153.6982 C.2     1  UNL1        0.0627
      9 C         138.8042  136.6830  152.5398 C.3     1  UNL1        0.0717
     10 C         142.4682  135.3477  156.2191 C.3     1  UNL1        0.0949
     11 N         142.9579  136.0520  157.4497 N.3     1  UNL1       -0.2887
     12 C         142.3900  137.3887  157.8248 C.3     1  UNL1        0.1161
     13 C         141.3324  138.0211  156.9694 C.3     1  UNL1        0.0510
     14 H         143.9632  136.1809  157.3348 H       1  UNL1        0.1239
     15 C         143.0360  134.0110  155.8440 C.3     1  UNL1        0.0252
     16 C         142.5230  133.2916  154.6319 C.3     1  UNL1        0.0339
     17 C         143.0909  131.9549  154.2567 C.3     1  UNL1        0.1422
     18 O         144.1717  131.3376  155.0937 O.3     1  UNL1       -0.3538
     19 C         144.6847  132.0569  156.3059 C.3     1  UNL1        0.1422
     20 C         144.1169  133.3937  156.6810 C.3     1  UNL1        0.0339
     21 C         142.8797  138.0931  159.0553 C.ar    1  UNL1        0.1314
     22 N         142.6203  137.6754  160.4724 N.ar    1  UNL1       -0.2341
     23 C         143.2951  138.6630  161.3776 C.ar    1  UNL1        0.0765
     24 C         143.9715  139.6910  160.5200 C.ar    1  UNL1        0.0882
     25 N         143.7148  139.3388  159.0847 N.ar    1  UNL1       -0.3388
     26 H         144.0377  139.8376  158.2998 H       1  UNL1        0.1672
     27 C         143.2937  138.6286  162.8772 C.3     1  UNL1        0.0369
     28 C         142.1680  137.9620  163.6111 C.3     1  UNL1        0.0056
     29 C         142.1666  137.9275  165.1106 C.3     1  UNL1        0.0004
     30 C         143.2908  138.5596  165.8765 C.3     1  UNL1        0.0000
     31 C         144.4165  139.2263  165.1426 C.3     1  UNL1        0.0004
     32 C         142.3428  138.0797  162.8637 C.3     1  UNL1        0.0000
     33 C         141.0438  137.3298  162.8452 C.3     1  UNL1        0.0004
     34 C         141.0424  137.2954  164.3448 C.3     1  UNL1        0.0000
     35 C         142.1695  137.9964  162.1114 C.3     1  UNL1        0.0056
     36 C         144.4179  139.2607  163.6430 C.3     1  UNL1        0.0056
@<TRIPOS>BOND
     1     1     2    2
     2     2     3    1
     3     3     4    2
     4     4     5    1
     5     5     6    2
     6     6     7    1
     7     7     8    2
     8     8     9    1
     9     6    10    1
    10    10    15    1
    11    15    16    1
    12    16    17    1
    13    17    18    1
    14    18    19    1
    15    19    20    1
    16    10    11    1
    17    11    12    1
    18    12    21    1
    19    21    22   ar
    20    22    23   ar
    21    23    27    1
    22    27    28    1
    23    28    29    1
    24    29    30    1
    25    30    31    1
    26    31    32    1
    27    32    33    1
    28    33    34    1
    29    33    35    1
    30    31    36    1
    31    23    24   ar
    32    24    25   ar
    33    12    13    1
    34     9     1    1
    35    20    15    1
    36    25    21   ar
    37     8     4    1
    38    35    27    1
    39    13     5    1
    40    36    27    1
    41    34    29    1
    42    11    14    1
    43    25    26    1
@<TRIPOS>MOLECULE
*****
 36 43 0 0 0
SMALL
GASTEIGER

@<TRIPOS>ATOM
      1 C         141.0255  145.5105  158.0431 C.2     1  UNL1       -0.0198
      2 C         140.9721  144.7277  156.7647 C.2     1  UNL1       -0.0042
      3 C         141.4014  143.2906  156.7468 C.2     1  UNL1        0.0006
      4 C         141.8841  142.6362  158.0072 C.2     1  UNL1        0.0111
      5 C         142.3684  141.2459  158.2944 C.2     1  UNL1       -0.0044
      6 C         142.7213  141.1694  159.7503 C.2     1  UNL1        0.0689
      7 N         142.4550  142.5124  160.3629 N.2     1  UNL1       -0.2526
      8 C         141.9376  143.4190  159.2856 C.2     1  UNL1        0.0627
      9 C         141.5083  144.8561  159.3036 C.3     1  UNL1        0.0717
     10 C         143.2394  139.8867  160.3300 C.3     1  UNL1        0.0949
     11 N         143.4047  138.6804  159.4539 N.3     1  UNL1       -0.2887
     12 C         143.0519  138.7569  157.9979 C.3     1  UNL1        0.1161
     13 C         142.5337  140.0397  157.4182 C.3     1  UNL1        0.0510
     14 H         142.8289  137.9418  159.8580 H       1  UNL1        0.1239
     15 C         143.5922  139.8102  161.7859 C.3     1  UNL1        0.0252
     16 C         142.8239  138.8992  162.6969 C.3     1  UNL1        0.0339
     17 C         143.1768  138.8227  164.1528 C.3     1  UNL1        0.1422
     18 O         144.2978  139.6572  164.6977 O.3     1  UNL1       -0.3538
     19 C         145.0660  140.5681  163.7867 C.3     1  UNL1        0.1422
     20 C         144.7132  140.6446  162.3308 C.3     1  UNL1        0.0339
     21 C         143.2172  137.5506  157.1218 C.ar    1  UNL1        0.1314
     22 N         142.5854  136.2080  157.3415 N.ar    1  UNL1       -0.2341
     23 C         143.0211  135.3029  156.2275 C.ar    1  UNL1        0.0765
     24 C         143.9221  136.0860  155.3193 C.ar    1  UNL1        0.0882
     25 N         144.0433  137.4752  155.8720 N.ar    1  UNL1       -0.3388
     26 H         144.5722  138.2087  155.4828 H       1  UNL1        0.1672
     27 C         142.6252  133.8667  156.0525 C.3     1  UNL1        0.0369
     28 C         143.3618  132.7901  156.7931 C.3     1  UNL1        0.0056
     29 C         142.9660  131.3540  156.6181 C.3     1  UNL1        0.0004
     30 C         141.8336  130.9942  155.7025 C.3     1  UNL1        0.0000
     31 C         141.0970  132.0709  154.9619 C.3     1  UNL1        0.0004
     32 C         143.4151  133.5637  156.7525 C.3     1  UNL1        0.0000
     33 C         144.4943  133.1498  157.7087 C.3     1  UNL1        0.0004
     34 C         144.0984  131.7136  157.5337 C.3     1  UNL1        0.0000
     35 C         143.7577  134.2263  156.9681 C.3     1  UNL1        0.0056
     36 C         141.4928  133.5071  155.1369 C.3     1  UNL1        0.0056
@<TRIPOS>BOND
     1     1     2    2
     2     2     3    1
     3     3     4    2
     4     4     5    1
     5     5     6    2
     6     6     7    1
     7     7     8    2
     8     8     9    1
     9     6    10    1
    10    10    15    1
    11    15    16    1
    12    16    17    1
    13    17    18    1
    14    18    19    1
    15    19    20    1
    16    10    11    1
    17    11    12    1
    18    12    21    1
    19    21    22   ar
    20    22    23   ar
    21    23    27    1
    22    27    28    1
    23    28    29    1
    24    29    30    1
    25    30    31    1
    26    31    32    1
    27    32    33    1
    28    33    34    1
    29    33    35    1
    30    31    36    1
    31    23    24   ar
    32    24    25   ar
    33    12    13    1
    34     9     1    1
    35    20    15    1
    36    25    21   ar
    37     8     4    1
    38    35    27    1
    39    13     5    1
    40    36    27    1
    41    34    29    1
    42    11    14    1
    43    25    26    1
@<TRIPOS>MOLECULE
*****
 36 43 0 0 0
SMALL
GASTEIGER

@<TRIPOS>ATOM
      1 C         146.9093  141.9913  155.9076 C.2     1  UNL1       -0.0198
      2 C         146.1742  142.6192  157.0545 C.2     1  UNL1       -0.0042
      3 C         144.9640  141.9445  157.6291 C.2     1  UNL1        0.0006
      4 C         144.4889  140.6419  157.0569 C.2     1  UNL1        0.0111
      5 C         143.3364  139.7502  157.4127 C.2     1  UNL1       -0.0044
      6 C         143.3592  138.5711  156.4857 C.2     1  UNL1        0.0689
      7 N         144.5258  138.7341  155.5570 N.2     1  UNL1       -0.2526
      8 C         145.2240  140.0140  155.9101 C.2     1  UNL1        0.0627
      9 C         146.4342  140.6887  155.3355 C.3     1  UNL1        0.0717
     10 C         142.3147  137.5014  156.6069 C.3     1  UNL1        0.0949
     11 N         141.2473  137.6107  157.6553 N.3     1  UNL1       -0.2887
     12 C         141.2245  138.7898  158.5822 C.3     1  UNL1        0.1161
     13 C         142.2691  139.8596  158.4609 C.3     1  UNL1        0.0510
     14 H         141.3222  136.7781  158.2397 H       1  UNL1        0.1239
     15 C         142.3375  136.3224  155.6800 C.3     1  UNL1        0.0252
     16 C         141.8270  136.4618  154.2765 C.3     1  UNL1        0.0339
     17 C         141.8498  135.2828  153.3495 C.3     1  UNL1        0.1422
     18 O         142.3831  133.9643  153.8260 O.3     1  UNL1       -0.3538
     19 C         142.8937  133.8249  155.2296 C.3     1  UNL1        0.1422
     20 C         142.8708  135.0039  156.1566 C.3     1  UNL1        0.0339
     21 C         140.1572  138.8992  159.6305 C.ar    1  UNL1        0.1314
     22 N         140.3633  138.7966  161.1127 N.ar    1  UNL1       -0.2341
     23 C         139.0299  138.9644  161.7789 C.ar    1  UNL1        0.0765
     24 C         137.9996  139.1706  160.7084 C.ar    1  UNL1        0.0882
     25 N         138.6963  139.1303  159.3806 N.ar    1  UNL1       -0.3388
     26 H         138.2697  139.2368  158.4998 H       1  UNL1        0.1672
     27 C         138.7720  138.9317  163.2562 C.3     1  UNL1        0.0369
     28 C         138.4360  140.1977  163.9871 C.3     1  UNL1        0.0056
     29 C         138.1781  140.1650  165.4643 C.3     1  UNL1        0.0004
     30 C         138.2562  138.8663  166.2108 C.3     1  UNL1        0.0000
     31 C         138.5922  137.6002  165.4799 C.3     1  UNL1        0.0004
     32 C         138.5970  140.0156  163.2496 C.3     1  UNL1        0.0000
     33 C         138.3579  141.4965  163.2406 C.3     1  UNL1        0.0004
     34 C         138.1000  141.4637  164.7179 C.3     1  UNL1        0.0000
     35 C         138.6939  140.2304  162.5098 C.3     1  UNL1        0.0056
     36 C         138.8500  137.6329  164.0026 C.3     1  UNL1        0.0056
@<TRIPOS>BOND
     1     1     2    2
     2     2     3    1
     3     3     4    2
     4     4     5    1
     5     5     6    2
     6     6     7    1
     7     7     8    2
     8     8     9    1
     9     6    10    1
    10    10    15    1
    11    15    16    1
    12    16    17    1
    13    17    18    1
    14    18    19    1
    15    19    20    1
    16    10    11    1
    17    11    12    1
    18    12    21    1
    19    21    22   ar
    20    22    23   ar
    21    23    27    1
    22    27    28    1
    23    28    29    1
    24    29    30    1
    25    30    31    1
    26    31    32    1
    27    32    33    1
    28    33    34    1
    29    33    35    1
    30    31    36    1
    31    23    24   ar
    32    24    25   ar
    33    12    13    1
    34     9     1    1
    35    20    15    1
    36    25    21   ar
    37     8     4    1
    38    35    27    1
    39    13     5    1
    40    36    27    1
    41    34    29    1
    42    11    14    1
    43    25    26    1
@<TRIPOS>MOLECULE
*****
 36 43 0 0 0
SMALL
GASTEIGER

@<TRIPOS>ATOM
      1 C         142.8197  139.4504  167.7536 C.2     1  UNL1       -0.0198
      2 C         143.3959  138.3911  166.8614 C.2     1  UNL1       -0.0042
      3 C         143.2486  138.5027  165.3729 C.2     1  UNL1        0.0006
      4 C         142.5251  139.6735  164.7764 C.2     1  UNL1        0.0111
      5 C         142.2250  140.0503  163.3559 C.2     1  UNL1       -0.0044
      6 C         141.4633  141.3425  163.3701 C.2     1  UNL1        0.0689
      7 N         141.2926  141.7642  164.7994 N.2     1  UNL1       -0.2526
      8 C         141.9489  140.7327  165.6686 C.2     1  UNL1        0.0627
      9 C         142.0962  140.6211  167.1572 C.3     1  UNL1        0.0717
     10 C         141.0235  141.9680  162.0797 C.3     1  UNL1        0.0949
     11 N         141.3455  141.3015  160.7750 N.3     1  UNL1       -0.2887
     12 C         142.1072  140.0093  160.7608 C.3     1  UNL1        0.1161
     13 C         142.5470  139.3837  162.0513 C.3     1  UNL1        0.0510
     14 H         141.8893  141.9699  160.2291 H       1  UNL1        0.1239
     15 C         140.2619  143.2601  162.0939 C.3     1  UNL1        0.0252
     16 C         138.9517  143.3505  162.8186 C.3     1  UNL1        0.0339
     17 C         138.1900  144.6426  162.8328 C.3     1  UNL1        0.1422
     18 O         138.7385  145.8444  162.1223 O.3     1  UNL1       -0.3538
     19 C         140.0486  145.7540  161.3975 C.3     1  UNL1        0.1422
     20 C         140.8103  144.4619  161.3833 C.3     1  UNL1        0.0339
     21 C         142.4291  139.3428  159.4562 C.ar    1  UNL1        0.1314
     22 N         142.0267  137.9555  159.0519 N.ar    1  UNL1       -0.2341
     23 C         142.5589  137.7018  157.6726 C.ar    1  UNL1        0.0765
     24 C         143.2902  138.9324  157.2244 C.ar    1  UNL1        0.0882
     25 N         143.2100  139.9465  158.3267 N.ar    1  UNL1       -0.3388
     26 H         143.6012  140.8498  158.3115 H       1  UNL1        0.1672
     27 C         142.3895  136.4393  156.8806 C.3     1  UNL1        0.0369
     28 C         141.2781  136.3252  155.8797 C.3     1  UNL1        0.0056
     29 C         141.1087  135.0627  155.0878 C.3     1  UNL1        0.0004
     30 C         142.0506  133.9142  155.2966 C.3     1  UNL1        0.0000
     31 C         143.1620  134.0282  156.2975 C.3     1  UNL1        0.0004
     32 C         141.5217  136.8765  156.3693 C.3     1  UNL1        0.0000
     33 C         140.3361  137.4738  155.6709 C.3     1  UNL1        0.0004
     34 C         140.1667  136.2112  154.8789 C.3     1  UNL1        0.0000
     35 C         141.4475  137.5878  156.6717 C.3     1  UNL1        0.0056
     36 C         143.3314  135.2908  157.0895 C.3     1  UNL1        0.0056
@<TRIPOS>BOND
     1     1     2    2
     2     2     3    1
     3     3     4    2
     4     4     5    1
     5     5     6    2
     6     6     7    1
     7     7     8    2
     8     8     9    1
     9     6    10    1
    10    10    15    1
    11    15    16    1
    12    16    17    1
    13    17    18    1
    14    18    19    1
    15    19    20    1
    16    10    11    1
    17    11    12    1
    18    12    21    1
    19    21    22   ar
    20    22    23   ar
    21    23    27    1
    22    27    28    1
    23    28    29    1
    24    29    30    1
    25    30    31    1
    26    31    32    1
    27    32    33    1
    28    33    34    1
    29    33    35    1
    30    31    36    1
    31    23    24   ar
    32    24    25   ar
    33    12    13    1
    34     9     1    1
    35    20    15    1
    36    25    21   ar
    37     8     4    1
    38    35    27    1
    39    13     5    1
    40    36    27    1
    41    34    29    1
    42    11    14    1
    43    25    26    1
@<TRIPOS>MOLECULE
*****
 36 43 0 0 0
SMALL
GASTEIGER

@<TRIPOS>ATOM
      1 C         144.3232  143.3607  164.2704 C.2     1  UNL1       -0.0198
      2 C         143.6030  144.6246  163.9043 C.2     1  UNL1       -0.0042
      3 C         142.9116  144.7365  162.5779 C.2     1  UNL1        0.0006
      4 C         142.9404  143.5846  161.6176 C.2     1  UNL1        0.0111
      5 C         142.3540  143.4041  160.2488 C.2     1  UNL1       -0.0044
      6 C         142.7117  142.0287  159.7689 C.2     1  UNL1        0.0689
      7 N         143.5192  141.3591  160.8411 N.2     1  UNL1       -0.2526
      8 C         143.6605  142.3208  161.9837 C.2     1  UNL1        0.0627
      9 C         144.3519  142.2088  163.3101 C.3     1  UNL1        0.0717
     10 C         142.2559  141.5636  158.4177 C.3     1  UNL1        0.0949
     11 N         141.4424  142.4741  157.5461 N.3     1  UNL1       -0.2887
     12 C         141.0847  143.8495  158.0260 C.3     1  UNL1        0.1161
     13 C         141.5405  144.3145  159.3774 C.3     1  UNL1        0.0510
     14 H         140.5645  141.9914  157.3546 H       1  UNL1        0.1239
     15 C         142.6136  140.1883  157.9378 C.3     1  UNL1        0.0252
     16 C         142.2825  138.9910  158.7785 C.3     1  UNL1        0.0339
     17 C         142.6402  137.6155  158.2986 C.3     1  UNL1        0.1422
     18 O         143.3291  137.4374  156.9781 O.3     1  UNL1       -0.3538
     19 C         143.6602  138.6348  156.1375 C.3     1  UNL1        0.1422
     20 C         143.3025  140.0102  156.6173 C.3     1  UNL1        0.0339
     21 C         140.2712  144.7599  157.1546 C.ar    1  UNL1        0.1314
     22 N         140.4269  146.2478  157.0460 N.ar    1  UNL1       -0.2341
     23 C         139.4111  146.7497  156.0630 C.ar    1  UNL1        0.0765
     24 C         138.6276  145.5720  155.5640 C.ar    1  UNL1        0.0882
     25 N         139.1592  144.3422  156.2386 N.ar    1  UNL1       -0.3388
     26 H         138.8351  143.4224  156.1039 H       1  UNL1        0.1672
     27 C         139.2135  148.1785  155.6514 C.3     1  UNL1        0.0369
     28 C         139.7898  148.6728  154.3577 C.3     1  UNL1        0.0056
     29 C         139.5923  150.1015  153.9460 C.3     1  UNL1        0.0004
     30 C         138.8184  151.0361  154.8279 C.3     1  UNL1        0.0000
     31 C         138.2420  150.5418  156.1216 C.3     1  UNL1        0.0004
     32 C         139.7842  147.9925  154.7319 C.3     1  UNL1        0.0000
     33 C         140.5638  147.7383  153.4758 C.3     1  UNL1        0.0004
     34 C         140.3662  149.1671  153.0641 C.3     1  UNL1        0.0000
     35 C         139.9874  147.2440  154.7694 C.3     1  UNL1        0.0056
     36 C         138.4396  149.1130  156.5333 C.3     1  UNL1        0.0056
@<TRIPOS>BOND
     1     1     2    2
     2     2     3    1
     3     3     4    2
     4     4     5    1
     5     5     6    2
     6     6     7    1
     7     7     8    2
     8     8     9    1
     9     6    10    1
    10    10    15    1
    11    15    16    1
    12    16    17    1
    13    17    18    1
    14    18    19    1
    15    19    20    1
    16    10    11    1
    17    11    12    1
    18    12    21    1
    19    21    22   ar
    20    22    23   ar
    21    23    27    1
    22    27    28    1
    23    28    29    1
    24    29    30    1
    25    30    31    1
    26    31    32    1
    27    32    33    1
    28    33    34    1
    29    33    35    1
    30    31    36    1
    31    23    24   ar
    32    24    25   ar
    33    12    13    1
    34     9     1    1
    35    20    15    1
    36    25    21   ar
    37     8     4    1
    38    35    27    1
    39    13     5    1
    40    36    27    1
    41    34    29    1
    42    11    14    1
    43    25    26    1
@<TRIPOS>MOLECULE
*****
 36 43 0 0 0
SMALL
GASTEIGER

@<TRIPOS>ATOM
      1 C         138.7805  139.0038  164.6992 C.2     1  UNL1       -0.0198
      2 C         139.3191  137.7073  164.1711 C.2     1  UNL1       -0.0042
      3 C         139.9742  137.6611  162.8225 C.2     1  UNL1        0.0006
      4 C         140.0907  138.9113  162.0020 C.2     1  UNL1        0.0111
      5 C         140.6807  139.1718  160.6478 C.2     1  UNL1       -0.0044
      6 C         140.5068  140.6293  160.3389 C.2     1  UNL1        0.0689
      7 N         139.8092  141.2696  161.5022 N.2     1  UNL1       -0.2526
      8 C         139.5520  140.2078  162.5301 C.2     1  UNL1        0.0627
      9 C         138.8970  140.2541  163.8787 C.3     1  UNL1        0.0717
     10 C         141.0061  141.1851  159.0382 C.3     1  UNL1        0.0949
     11 N         141.6794  140.2834  158.0463 N.3     1  UNL1       -0.2887
     12 C         141.8533  138.8259  158.3552 C.3     1  UNL1        0.1161
     13 C         141.3540  138.2701  159.6560 C.3     1  UNL1        0.0510
     14 H         142.6123  140.6642  157.8880 H       1  UNL1        0.1239
     15 C         140.8322  142.6426  158.7293 C.3     1  UNL1        0.0252
     16 C         141.6080  143.6701  159.4989 C.3     1  UNL1        0.0339
     17 C         141.4341  145.1276  159.1900 C.3     1  UNL1        0.1422
     18 O         140.4843  145.5576  158.1115 O.3     1  UNL1       -0.3538
     19 C         139.7085  144.5301  157.3420 C.3     1  UNL1        0.1422
     20 C         139.8824  143.0725  157.6509 C.3     1  UNL1        0.0339
     21 C         142.5265  137.9241  157.3634 C.ar    1  UNL1        0.1314
     22 N         142.1252  136.5160  157.0378 N.ar    1  UNL1       -0.2341
     23 C         143.0700  135.9939  155.9963 C.ar    1  UNL1        0.0765
     24 C         144.0552  137.0793  155.6782 C.ar    1  UNL1        0.0882
     25 N         143.7193  138.2723  156.5231 N.ar    1  UNL1       -0.3388
     26 H         144.1978  139.1327  156.5258 H       1  UNL1        0.1672
     27 C         143.0356  134.6263  155.3809 C.3     1  UNL1        0.0369
     28 C         143.5688  133.4482  156.1409 C.3     1  UNL1        0.0056
     29 C         143.5343  132.0808  155.5256 C.3     1  UNL1        0.0004
     30 C         142.9667  131.8912  154.1501 C.3     1  UNL1        0.0000
     31 C         142.4335  133.0694  153.3900 C.3     1  UNL1        0.0004
     32 C         143.5008  134.2085  156.2834 C.3     1  UNL1        0.0000
     33 C         144.1364  133.6377  157.5164 C.3     1  UNL1        0.0004
     34 C         144.1020  132.2702  156.9010 C.3     1  UNL1        0.0000
     35 C         143.6032  134.8157  156.7563 C.3     1  UNL1        0.0056
     36 C         142.4679  134.4369  154.0054 C.3     1  UNL1        0.0056
@<TRIPOS>BOND
     1     1     2    2
     2     2     3    1
     3     3     4    2
     4     4     5    1
     5     5     6    2
     6     6     7    1
     7     7     8    2
     8     8     9    1
     9     6    10    1
    10    10    15    1
    11    15    16    1
    12    16    17    1
    13    17    18    1
    14    18    19    1
    15    19    20    1
    16    10    11    1
    17    11    12    1
    18    12    21    1
    19    21    22   ar
    20    22    23   ar
    21    23    27    1
    22    27    28    1
    23    28    29    1
    24    29    30    1
    25    30    31    1
    26    31    32    1
    27    32    33    1
    28    33    34    1
    29    33    35    1
    30    31    36    1
    31    23    24   ar
    32    24    25   ar
    33    12    13    1
    34     9     1    1
    35    20    15    1
    36    25    21   ar
    37     8     4    1
    38    35    27    1
    39    13     5    1
    40    36    27    1
    41    34    29    1
    42    11    14    1
    43    25    26    1
@<TRIPOS>MOLECULE
*****
 36 43 0 0 0
SMALL
GASTEIGER

@<TRIPOS>ATOM
      1 C         136.8106  141.9048  154.2772 C.2     1  UNL1       -0.0198
      2 C         136.1549  141.9987  155.6230 C.2     1  UNL1       -0.0042
      3 C         136.8046  141.3690  156.8194 C.2     1  UNL1        0.0006
      4 C         138.1101  140.6455  156.6700 C.2     1  UNL1        0.0111
      5 C         138.9810  139.9315  157.6607 C.2     1  UNL1       -0.0044
      6 C         140.1751  139.3964  156.9273 C.2     1  UNL1        0.0689
      7 N         140.0420  139.7796  155.4832 N.2     1  UNL1       -0.2526
      8 C         138.7657  140.5517  155.3242 C.2     1  UNL1        0.0627
      9 C         138.1160  141.1813  154.1278 C.3     1  UNL1        0.0717
     10 C         141.2292  138.6293  157.6691 C.3     1  UNL1        0.0949
     11 N         141.0893  138.3972  159.1445 N.3     1  UNL1       -0.2887
     12 C         139.8953  138.9324  159.8780 C.3     1  UNL1        0.1161
     13 C         138.8411  139.6996  159.1361 C.3     1  UNL1        0.0510
     14 H         141.9133  138.8051  159.5861 H       1  UNL1        0.1239
     15 C         142.4231  138.0942  156.9357 C.3     1  UNL1        0.0252
     16 C         142.6473  136.6137  156.8470 C.3     1  UNL1        0.0339
     17 C         143.8413  136.0785  156.1135 C.3     1  UNL1        0.1422
     18 O         144.8111  137.0238  155.4687 O.3     1  UNL1       -0.3538
     19 C         144.5869  138.5043  155.5573 C.3     1  UNL1        0.1422
     20 C         143.3929  139.0395  156.2908 C.3     1  UNL1        0.0339
     21 C         139.7554  138.7004  161.3533 C.ar    1  UNL1        0.1314
     22 N         140.3733  139.5308  162.4389 N.ar    1  UNL1       -0.2341
     23 C         139.9728  138.9409  163.7586 C.ar    1  UNL1        0.0765
     24 C         139.1073  137.7459  163.4886 C.ar    1  UNL1        0.0882
     25 N         138.9729  137.5973  162.0021 N.ar    1  UNL1       -0.3388
     26 H         138.4611  136.8984  161.5343 H       1  UNL1        0.1672
     27 C         140.3683  139.4556  165.1109 C.3     1  UNL1        0.0369
     28 C         141.6903  139.0675  165.7039 C.3     1  UNL1        0.0056
     29 C         142.0859  139.5821  167.0560 C.3     1  UNL1        0.0004
     30 C         141.1595  140.4850  167.8154 C.3     1  UNL1        0.0000
     31 C         139.8374  140.8732  167.2224 C.3     1  UNL1        0.0004
     32 C         141.3186  138.9100  165.0406 C.3     1  UNL1        0.0000
     33 C         142.6168  138.1646  164.9445 C.3     1  UNL1        0.0004
     34 C         143.0123  138.6793  166.2968 C.3     1  UNL1        0.0000
     35 C         141.2948  138.5527  164.3516 C.3     1  UNL1        0.0056
     36 C         139.4419  140.3584  165.8701 C.3     1  UNL1        0.0056
@<TRIPOS>BOND
     1     1     2    2
     2     2     3    1
     3     3     4    2
     4     4     5    1
     5     5     6    2
     6     6     7    1
     7     7     8    2
     8     8     9    1
     9     6    10    1
    10    10    15    1
    11    15    16    1
    12    16    17    1
    13    17    18    1
    14    18    19    1
    15    19    20    1
    16    10    11    1
    17    11    12    1
    18    12    21    1
    19    21    22   ar
    20    22    23   ar
    21    23    27    1
    22    27    28    1
    23    28    29    1
    24    29    30    1
    25    30    31    1
    26    31    32    1
    27    32    33    1
    28    33    34    1
    29    33    35    1
    30    31    36    1
    31    23    24   ar
    32    24    25   ar
    33    12    13    1
    34     9     1    1
    35    20    15    1
    36    25    21   ar
    37     8     4    1
    38    35    27    1
    39    13     5    1
    40    36    27    1
    41    34    29    1
    42    11    14    1
    43    25    26    1
