@<TRIPOS>MOLECULE
*****
 31 35 0 0 0
SMALL
GASTEIGER

@<TRIPOS>ATOM
      1 N         140.8937  138.8052  162.6266 N.3     1  UNL1       -0.2725
      2 C         141.5407  140.1364  162.8700 C.3     1  UNL1        0.0738
      3 C         141.8918  140.5554  164.2669 C.3     1  UNL1        0.0376
      4 C         141.5959  139.6432  165.4203 C.3     1  UNL1        0.0841
      5 C         140.9490  138.3119  165.1768 C.3     1  UNL1        0.0376
      6 C         140.5979  137.8929  163.7800 C.3     1  UNL1        0.0738
      7 N         141.9470  140.0622  166.8171 N.am    1  UNL1       -0.2423
      8 C         142.8942  139.3526  167.7386 C.2     1  UNL1        0.3310
      9 O         143.6565  138.0994  167.4252 O.2     1  UNL1       -0.2501
     10 N         142.9451  140.1161  169.0287 N.am    1  UNL1       -0.1646
     11 C         142.0294  141.2978  168.9045 C.2     1  UNL1        0.0730
     12 C         141.6777  142.3997  169.8594 C.3     1  UNL1        0.1010
     13 C         140.7090  143.4684  169.4475 C.2     1  UNL1        0.1235
     14 F         140.3572  144.5703  170.4024 F       1  UNL1       -0.2085
     15 C         140.0921  143.4350  168.0806 C.2     1  UNL1        0.0269
     16 C         140.4439  142.3330  167.1257 C.2     1  UNL1        0.0179
     17 C         141.4126  141.2644  167.5376 C.2     1  UNL1        0.0670
     18 C         140.5427  138.3862  161.2298 C.3     1  UNL1        0.0739
     19 C         139.1387  137.9727  160.9013 C.3     1  UNL1        0.0392
     20 C         137.9927  138.8838  161.2278 C.3     1  UNL1        0.0998
     21 O         138.2660  139.8175  158.3899 O.2     1  UNL1       -0.2705
     22 C         138.2276  140.8168  159.5079 C.2     1  UNL1        0.2739
     23 C         138.3258  142.2830  159.2069 C.3     1  UNL1        0.2900
     24 O         138.2874  143.2824  160.3248 O.3     1  UNL1       -0.4643
     25 C         138.1508  142.8156  161.7438 C.ar    1  UNL1        0.1528
     26 C         138.1124  143.8149  162.8617 C.ar    1  UNL1        0.0382
     27 C         137.9757  143.3481  164.2806 C.ar    1  UNL1        0.0032
     28 C         137.8775  141.8819  164.5816 C.ar    1  UNL1        0.0015
     29 C         137.9159  140.8825  163.4637 C.ar    1  UNL1        0.0180
     30 C         138.0525  141.3494  162.0448 C.ar    1  UNL1        0.0881
     31 N         138.0909  140.3500  160.9268 N.am    1  UNL1       -0.2529
@<TRIPOS>BOND
     1    21    22    2
     2    22    23    1
     3    23    24    1
     4    24    25    1
     5    25    26   ar
     6    26    27   ar
     7    27    28   ar
     8    28    29   ar
     9    29    30   ar
    10    30    31    1
    11    31    20    1
    12    20    19    1
    13    19    18    1
    14    18     1    1
    15     1     2    1
    16     2     3    1
    17     3     4    1
    18     4     7    1
    19     7     8   am
    20     8     9    2
    21     8    10    1
    22    10    11    2
    23    11    12    1
    24    12    13    1
    25    13    14    1
    26    13    15    2
    27    15    16    1
    28    16    17    2
    29     4     5    1
    30     5     6    1
    31    31    22   am
    32     6     1    1
    33    30    25   ar
    34    17     7    1
    35    17    11    1
@<TRIPOS>MOLECULE
*****
 31 35 0 0 0
SMALL
GASTEIGER

@<TRIPOS>ATOM
      1 N         141.0287  138.6586  162.3770 N.3     1  UNL1       -0.2725
      2 C         141.0527  137.5744  163.4132 C.3     1  UNL1        0.0738
      3 C         140.6729  137.8835  164.8311 C.3     1  UNL1        0.0376
      4 C         140.2691  139.2768  165.2126 C.3     1  UNL1        0.0841
      5 C         140.2451  140.3611  164.1763 C.3     1  UNL1        0.0376
      6 C         140.6249  140.0519  162.7585 C.3     1  UNL1        0.0738
      7 N         139.8893  139.5859  166.6304 N.am    1  UNL1       -0.2423
      8 C         138.6147  139.1814  167.3100 C.2     1  UNL1        0.3310
      9 O         137.4961  138.3968  166.6910 O.2     1  UNL1       -0.2501
     10 N         138.6551  139.6993  168.7171 N.am    1  UNL1       -0.1646
     11 C         139.9546  140.4239  168.9073 C.2     1  UNL1        0.0730
     12 C         140.5419  141.1384  170.0882 C.3     1  UNL1        0.1010
     13 C         141.8920  141.7830  169.9795 C.2     1  UNL1        0.1235
     14 F         142.4793  142.4975  171.1603 F       1  UNL1       -0.2085
     15 C         142.6548  141.7129  168.6897 C.2     1  UNL1        0.0269
     16 C         142.0675  140.9983  167.5088 C.2     1  UNL1        0.0179
     17 C         140.7174  140.3538  167.6176 C.2     1  UNL1        0.0670
     18 C         141.4084  138.3495  160.9592 C.3     1  UNL1        0.0739
     19 C         142.6736  137.5980  160.6685 C.3     1  UNL1        0.0392
     20 C         144.0028  138.2711  160.8429 C.3     1  UNL1        0.0998
     21 O         143.9073  139.6698  158.1907 O.2     1  UNL1       -0.2705
     22 C         144.0524  140.4660  159.4537 C.2     1  UNL1        0.2739
     23 C         144.1497  141.9615  159.3905 C.3     1  UNL1        0.2900
     24 O         144.2947  142.7576  160.6535 O.3     1  UNL1       -0.4643
     25 C         144.3424  142.0583  161.9797 C.ar    1  UNL1        0.1528
     26 C         144.4874  142.8544  163.2426 C.ar    1  UNL1        0.0382
     27 C         144.5352  142.1551  164.5687 C.ar    1  UNL1        0.0032
     28 C         144.4379  140.6596  164.6319 C.ar    1  UNL1        0.0015
     29 C         144.2928  139.8634  163.3689 C.ar    1  UNL1        0.0180
     30 C         144.2451  140.5628  162.0428 C.ar    1  UNL1        0.0881
     31 N         144.1001  139.7666  160.7798 N.am    1  UNL1       -0.2529
@<TRIPOS>BOND
     1    21    22    2
     2    22    23    1
     3    23    24    1
     4    24    25    1
     5    25    26   ar
     6    26    27   ar
     7    27    28   ar
     8    28    29   ar
     9    29    30   ar
    10    30    31    1
    11    31    20    1
    12    20    19    1
    13    19    18    1
    14    18     1    1
    15     1     2    1
    16     2     3    1
    17     3     4    1
    18     4     7    1
    19     7     8   am
    20     8     9    2
    21     8    10    1
    22    10    11    2
    23    11    12    1
    24    12    13    1
    25    13    14    1
    26    13    15    2
    27    15    16    1
    28    16    17    2
    29     4     5    1
    30     5     6    1
    31    31    22   am
    32     6     1    1
    33    30    25   ar
    34    17     7    1
    35    17    11    1
@<TRIPOS>MOLECULE
*****
 31 35 0 0 0
SMALL
GASTEIGER

@<TRIPOS>ATOM
      1 N         141.9391  139.0349  161.9669 N.3     1  UNL1       -0.2725
      2 C         142.4361  138.3111  163.1831 C.3     1  UNL1        0.0738
      3 C         142.7610  139.0770  164.4312 C.3     1  UNL1        0.0376
      4 C         142.5889  140.5668  164.4632 C.3     1  UNL1        0.0841
      5 C         142.0919  141.2906  163.2469 C.3     1  UNL1        0.0376
      6 C         141.7670  140.5247  161.9988 C.3     1  UNL1        0.0738
      7 N         142.9138  141.3327  165.7112 N.am    1  UNL1       -0.2423
      8 C         143.8197  142.5247  165.8035 C.2     1  UNL1        0.3310
      9 O         144.5597  143.1600  164.6639 O.2     1  UNL1       -0.2501
     10 N         143.8556  142.9699  167.2355 N.am    1  UNL1       -0.1646
     11 C         142.9719  142.0530  168.0283 C.2     1  UNL1        0.0730
     12 C         142.6221  142.0087  169.4862 C.3     1  UNL1        0.1010
     13 C         141.6902  140.9526  170.0022 C.2     1  UNL1        0.1235
     14 F         141.3404  140.9083  171.4600 F       1  UNL1       -0.2085
     15 C         141.1081  139.9408  169.0601 C.2     1  UNL1        0.0269
     16 C         141.4580  139.9851  167.6021 C.2     1  UNL1        0.0179
     17 C         142.3899  141.0412  167.0862 C.2     1  UNL1        0.0670
     18 C         141.6142  138.2690  160.7188 C.3     1  UNL1        0.0739
     19 C         140.3207  138.5180  160.0013 C.3     1  UNL1        0.0392
     20 C         139.0179  138.3646  160.7289 C.3     1  UNL1        0.0998
     21 O         138.1722  141.0599  159.7189 O.2     1  UNL1       -0.2705
     22 C         138.1468  140.7684  161.1901 C.2     1  UNL1        0.2739
     23 C         137.6985  141.8246  162.1563 C.3     1  UNL1        0.2900
     24 O         137.6731  141.5332  163.6274 O.3     1  UNL1       -0.4643
     25 C         138.0960  140.1855  164.1325 C.ar    1  UNL1        0.1528
     26 C         138.0705  139.8941  165.6037 C.ar    1  UNL1        0.0382
     27 C         138.4934  138.5465  166.1087 C.ar    1  UNL1        0.0032
     28 C         138.9417  137.4903  165.1425 C.ar    1  UNL1        0.0015
     29 C         138.9671  137.7817  163.6713 C.ar    1  UNL1        0.0180
     30 C         138.5442  139.1293  163.1663 C.ar    1  UNL1        0.0881
     31 N         138.5696  139.4208  161.6951 N.am    1  UNL1       -0.2529
@<TRIPOS>BOND
     1    21    22    2
     2    22    23    1
     3    23    24    1
     4    24    25    1
     5    25    26   ar
     6    26    27   ar
     7    27    28   ar
     8    28    29   ar
     9    29    30   ar
    10    30    31    1
    11    31    20    1
    12    20    19    1
    13    19    18    1
    14    18     1    1
    15     1     2    1
    16     2     3    1
    17     3     4    1
    18     4     7    1
    19     7     8   am
    20     8     9    2
    21     8    10    1
    22    10    11    2
    23    11    12    1
    24    12    13    1
    25    13    14    1
    26    13    15    2
    27    15    16    1
    28    16    17    2
    29     4     5    1
    30     5     6    1
    31    31    22   am
    32     6     1    1
    33    30    25   ar
    34    17     7    1
    35    17    11    1
@<TRIPOS>MOLECULE
*****
 31 35 0 0 0
SMALL
GASTEIGER

@<TRIPOS>ATOM
      1 N         139.2963  140.1630  161.9962 N.3     1  UNL1       -0.2725
      2 C         140.5780  140.1654  162.7754 C.3     1  UNL1        0.0738
      3 C         140.5444  140.1308  164.2746 C.3     1  UNL1        0.0376
      4 C         139.2290  140.0937  164.9946 C.3     1  UNL1        0.0841
      5 C         137.9473  140.0912  164.2153 C.3     1  UNL1        0.0376
      6 C         137.9810  140.1259  162.7162 C.3     1  UNL1        0.0738
      7 N         139.1953  140.0591  166.4938 N.am    1  UNL1       -0.2423
      8 C         138.3188  139.1802  167.3359 C.2     1  UNL1        0.3310
      9 O         137.3220  138.1816  166.8267 O.2     1  UNL1       -0.2501
     10 N         138.6140  139.4751  168.7767 N.am    1  UNL1       -0.1646
     11 C         139.6730  140.5363  168.8251 C.2     1  UNL1        0.0730
     12 C         140.3565  141.2206  169.9716 C.3     1  UNL1        0.1010
     13 C         141.3995  142.2658  169.7072 C.2     1  UNL1        0.1235
     14 F         142.0830  142.9501  170.8536 F       1  UNL1       -0.2085
     15 C         141.7588  142.6267  168.2962 C.2     1  UNL1        0.0269
     16 C         141.0752  141.9424  167.1497 C.2     1  UNL1        0.0179
     17 C         140.0323  140.8972  167.4142 C.2     1  UNL1        0.0670
     18 C         139.3300  140.1976  160.4970 C.3     1  UNL1        0.0739
     19 C         138.4217  141.1269  159.7476 C.3     1  UNL1        0.0392
     20 C         138.5662  142.6109  159.9116 C.3     1  UNL1        0.0998
     21 O         141.3193  142.7742  158.7310 O.2     1  UNL1       -0.2705
     22 C         141.0745  143.2509  160.1321 C.2     1  UNL1        0.2739
     23 C         142.2063  143.8092  160.9428 C.3     1  UNL1        0.2900
     24 O         141.9615  144.2859  162.3438 O.3     1  UNL1       -0.4643
     25 C         140.5849  144.2043  162.9341 C.ar    1  UNL1        0.1528
     26 C         140.3402  144.6811  164.3351 C.ar    1  UNL1        0.0382
     27 C         138.9636  144.5994  164.9253 C.ar    1  UNL1        0.0032
     28 C         137.8318  144.0411  164.1146 C.ar    1  UNL1        0.0015
     29 C         138.0766  143.5644  162.7136 C.ar    1  UNL1        0.0180
     30 C         139.4531  143.6460  162.1234 C.ar    1  UNL1        0.0881
     31 N         139.6980  143.1693  160.7223 N.am    1  UNL1       -0.2529
@<TRIPOS>BOND
     1    21    22    2
     2    22    23    1
     3    23    24    1
     4    24    25    1
     5    25    26   ar
     6    26    27   ar
     7    27    28   ar
     8    28    29   ar
     9    29    30   ar
    10    30    31    1
    11    31    20    1
    12    20    19    1
    13    19    18    1
    14    18     1    1
    15     1     2    1
    16     2     3    1
    17     3     4    1
    18     4     7    1
    19     7     8   am
    20     8     9    2
    21     8    10    1
    22    10    11    2
    23    11    12    1
    24    12    13    1
    25    13    14    1
    26    13    15    2
    27    15    16    1
    28    16    17    2
    29     4     5    1
    30     5     6    1
    31    31    22   am
    32     6     1    1
    33    30    25   ar
    34    17     7    1
    35    17    11    1
@<TRIPOS>MOLECULE
*****
 31 35 0 0 0
SMALL
GASTEIGER

@<TRIPOS>ATOM
      1 N         142.2856  140.6040  162.1225 N.3     1  UNL1       -0.2725
      2 C         140.7867  140.6539  162.1505 C.3     1  UNL1        0.0738
      3 C         140.0530  140.4357  163.4405 C.3     1  UNL1        0.0376
      4 C         140.8182  140.1675  164.7025 C.3     1  UNL1        0.0841
      5 C         142.3171  140.1177  164.6744 C.3     1  UNL1        0.0376
      6 C         143.0508  140.3359  163.3845 C.3     1  UNL1        0.0738
      7 N         140.0845  139.9493  165.9924 N.am    1  UNL1       -0.2423
      8 C         139.0320  138.9104  166.2432 C.2     1  UNL1        0.3310
      9 O         138.5284  137.9073  165.2481 O.2     1  UNL1       -0.2501
     10 N         138.5715  139.0506  167.6639 N.am    1  UNL1       -0.1646
     11 C         139.3394  140.1762  168.2911 C.2     1  UNL1        0.0730
     12 C         139.3079  140.7671  169.6694 C.3     1  UNL1        0.1010
     13 C         140.2116  141.9136  170.0148 C.2     1  UNL1        0.1235
     14 F         140.1801  142.5045  171.3930 F       1  UNL1       -0.2085
     15 C         141.1467  142.4690  168.9817 C.2     1  UNL1        0.0269
     16 C         141.1781  141.8780  167.6033 C.2     1  UNL1        0.0179
     17 C         140.2745  140.7316  167.2581 C.2     1  UNL1        0.0670
     18 C         143.0193  140.8223  160.8325 C.3     1  UNL1        0.0739
     19 C         143.8373  142.0641  160.6358 C.3     1  UNL1        0.0392
     20 C         143.4895  143.3175  161.3829 C.3     1  UNL1        0.0998
     21 O         142.7944  144.2265  158.6096 O.2     1  UNL1       -0.2705
     22 C         141.8345  144.4605  159.7383 C.2     1  UNL1        0.2739
     23 C         140.5270  145.1490  159.4804 C.3     1  UNL1        0.2900
     24 O         139.5671  145.3830  160.6090 O.3     1  UNL1       -0.4643
     25 C         139.9147  144.9285  161.9956 C.ar    1  UNL1        0.1528
     26 C         138.9548  145.1625  163.1243 C.ar    1  UNL1        0.0382
     27 C         139.3024  144.7080  164.5108 C.ar    1  UNL1        0.0032
     28 C         140.6098  144.0195  164.7688 C.ar    1  UNL1        0.0015
     29 C         141.5697  143.7855  163.6402 C.ar    1  UNL1        0.0180
     30 C         141.2221  144.2400  162.2536 C.ar    1  UNL1        0.0881
     31 N         142.1821  144.0060  161.1249 N.am    1  UNL1       -0.2529
@<TRIPOS>BOND
     1    21    22    2
     2    22    23    1
     3    23    24    1
     4    24    25    1
     5    25    26   ar
     6    26    27   ar
     7    27    28   ar
     8    28    29   ar
     9    29    30   ar
    10    30    31    1
    11    31    20    1
    12    20    19    1
    13    19    18    1
    14    18     1    1
    15     1     2    1
    16     2     3    1
    17     3     4    1
    18     4     7    1
    19     7     8   am
    20     8     9    2
    21     8    10    1
    22    10    11    2
    23    11    12    1
    24    12    13    1
    25    13    14    1
    26    13    15    2
    27    15    16    1
    28    16    17    2
    29     4     5    1
    30     5     6    1
    31    31    22   am
    32     6     1    1
    33    30    25   ar
    34    17     7    1
    35    17    11    1
@<TRIPOS>MOLECULE
*****
 31 35 0 0 0
SMALL
GASTEIGER

@<TRIPOS>ATOM
      1 N         143.1851  140.9598  162.2756 N.3     1  UNL1       -0.2725
      2 C         142.6701  139.6350  162.7548 C.3     1  UNL1        0.0738
      3 C         142.4578  139.3986  164.2208 C.3     1  UNL1        0.0376
      4 C         142.7606  140.4870  165.2076 C.3     1  UNL1        0.0841
      5 C         143.2756  141.8119  164.7283 C.3     1  UNL1        0.0376
      6 C         143.4878  142.0482  163.2624 C.3     1  UNL1        0.0738
      7 N         142.5483  140.2506  166.6735 N.am    1  UNL1       -0.2423
      8 C         143.0935  139.1019  167.4694 C.2     1  UNL1        0.3310
      9 O         143.9466  137.9880  166.9390 O.2     1  UNL1       -0.2501
     10 N         142.6358  139.2628  168.8887 N.am    1  UNL1       -0.1646
     11 C         141.8077  140.5109  168.9701 C.2     1  UNL1        0.0730
     12 C         141.0960  141.1702  170.1141 C.3     1  UNL1        0.1010
     13 C         140.3301  142.4402  169.8889 C.2     1  UNL1        0.1235
     14 F         139.6183  143.0996  171.0327 F       1  UNL1       -0.2085
     15 C         140.2760  143.0508  168.5198 C.2     1  UNL1        0.0269
     16 C         140.9878  142.3913  167.3759 C.2     1  UNL1        0.0179
     17 C         141.7537  141.1214  167.6011 C.2     1  UNL1        0.0670
     18 C         143.3973  141.1962  160.8097 C.3     1  UNL1        0.0739
     19 C         142.7335  142.3592  160.1337 C.3     1  UNL1        0.0392
     20 C         141.2427  142.5126  160.1973 C.3     1  UNL1        0.0998
     21 O         141.5216  145.4596  159.7103 O.2     1  UNL1       -0.2705
     22 C         140.7691  144.9656  160.9102 C.2     1  UNL1        0.2739
     23 C         140.1561  145.9451  161.8666 C.3     1  UNL1        0.2900
     24 O         139.4036  145.4512  163.0665 O.3     1  UNL1       -0.4643
     25 C         139.2641  143.9776  163.3100 C.ar    1  UNL1        0.1528
     26 C         138.5116  143.4836  164.5099 C.ar    1  UNL1        0.0382
     27 C         138.3722  142.0101  164.7533 C.ar    1  UNL1        0.0032
     28 C         138.9852  141.0306  163.7969 C.ar    1  UNL1        0.0015
     29 C         139.7377  141.5246  162.5971 C.ar    1  UNL1        0.0180
     30 C         139.8771  142.9981  162.3536 C.ar    1  UNL1        0.0881
     31 N         140.6297  143.4921  161.1537 N.am    1  UNL1       -0.2529
@<TRIPOS>BOND
     1    21    22    2
     2    22    23    1
     3    23    24    1
     4    24    25    1
     5    25    26   ar
     6    26    27   ar
     7    27    28   ar
     8    28    29   ar
     9    29    30   ar
    10    30    31    1
    11    31    20    1
    12    20    19    1
    13    19    18    1
    14    18     1    1
    15     1     2    1
    16     2     3    1
    17     3     4    1
    18     4     7    1
    19     7     8   am
    20     8     9    2
    21     8    10    1
    22    10    11    2
    23    11    12    1
    24    12    13    1
    25    13    14    1
    26    13    15    2
    27    15    16    1
    28    16    17    2
    29     4     5    1
    30     5     6    1
    31    31    22   am
    32     6     1    1
    33    30    25   ar
    34    17     7    1
    35    17    11    1
@<TRIPOS>MOLECULE
*****
 31 35 0 0 0
SMALL
GASTEIGER

@<TRIPOS>ATOM
      1 N         139.3062  138.4222  162.1916 N.3     1  UNL1       -0.2725
      2 C         138.2842  139.4095  162.6719 C.3     1  UNL1        0.0738
      3 C         138.2168  139.7719  164.1260 C.3     1  UNL1        0.0376
      4 C         139.1715  139.1470  165.0996 C.3     1  UNL1        0.0841
      5 C         140.1936  138.1597  164.6193 C.3     1  UNL1        0.0376
      6 C         140.2609  137.7973  163.1653 C.3     1  UNL1        0.0738
      7 N         139.1041  139.5093  166.5536 N.am    1  UNL1       -0.2423
      8 C         138.1592  138.9293  167.5639 C.2     1  UNL1        0.3310
      9 O         137.1158  137.8851  167.2976 O.2     1  UNL1       -0.2501
     10 N         138.4409  139.5768  168.8873 N.am    1  UNL1       -0.1646
     11 C         139.5600  140.5570  168.6949 C.2     1  UNL1        0.0730
     12 C         140.2586  141.4821  169.6468 C.3     1  UNL1        0.1010
     13 C         141.3672  142.3656  169.1563 C.2     1  UNL1        0.1235
     14 F         142.0659  143.2907  170.1080 F       1  UNL1       -0.2085
     15 C         141.7771  142.3239  167.7139 C.2     1  UNL1        0.0269
     16 C         141.0784  141.3987  166.7621 C.2     1  UNL1        0.0179
     17 C         139.9698  140.5153  167.2526 C.2     1  UNL1        0.0670
     18 C         139.3736  138.0599  160.7376 C.3     1  UNL1        0.0739
     19 C         139.4017  139.1391  159.6962 C.3     1  UNL1        0.0392
     20 C         140.6851  139.8529  159.3903 C.3     1  UNL1        0.0998
     21 O         142.6663  137.6495  158.9214 O.2     1  UNL1       -0.2705
     22 C         142.8558  138.5968  160.0689 C.2     1  UNL1        0.2739
     23 C         144.0358  138.4425  160.9819 C.3     1  UNL1        0.2900
     24 O         144.2253  139.3898  162.1293 O.3     1  UNL1       -0.4643
     25 C         143.2347  140.4915  162.3638 C.ar    1  UNL1        0.1528
     26 C         143.4242  141.4388  163.5112 C.ar    1  UNL1        0.0382
     27 C         142.4336  142.5405  163.7457 C.ar    1  UNL1        0.0032
     28 C         141.2535  142.6949  162.8327 C.ar    1  UNL1        0.0015
     29 C         141.0640  141.7476  161.6852 C.ar    1  UNL1        0.0180
     30 C         142.0546  140.6459  161.4508 C.ar    1  UNL1        0.0881
     31 N         141.8652  139.6985  160.3033 N.am    1  UNL1       -0.2529
@<TRIPOS>BOND
     1    21    22    2
     2    22    23    1
     3    23    24    1
     4    24    25    1
     5    25    26   ar
     6    26    27   ar
     7    27    28   ar
     8    28    29   ar
     9    29    30   ar
    10    30    31    1
    11    31    20    1
    12    20    19    1
    13    19    18    1
    14    18     1    1
    15     1     2    1
    16     2     3    1
    17     3     4    1
    18     4     7    1
    19     7     8   am
    20     8     9    2
    21     8    10    1
    22    10    11    2
    23    11    12    1
    24    12    13    1
    25    13    14    1
    26    13    15    2
    27    15    16    1
    28    16    17    2
    29     4     5    1
    30     5     6    1
    31    31    22   am
    32     6     1    1
    33    30    25   ar
    34    17     7    1
    35    17    11    1
@<TRIPOS>MOLECULE
*****
 31 35 0 0 0
SMALL
GASTEIGER

@<TRIPOS>ATOM
      1 N         139.3996  138.8400  163.9203 N.3     1  UNL1       -0.2725
      2 C         140.7071  138.5946  164.6131 C.3     1  UNL1        0.0738
      3 C         140.9186  139.0899  166.0132 C.3     1  UNL1        0.0376
      4 C         139.8226  139.8306  166.7203 C.3     1  UNL1        0.0841
      5 C         138.5150  140.0760  166.0273 C.3     1  UNL1        0.0376
      6 C         138.3036  139.5807  164.6274 C.3     1  UNL1        0.0738
      7 N         140.0340  140.3259  168.1202 N.am    1  UNL1       -0.2423
      8 C         139.1183  140.0938  169.2853 C.2     1  UNL1        0.3310
      9 O         137.8303  139.3256  169.2550 O.2     1  UNL1       -0.2501
     10 N         139.7166  140.7647  170.4861 N.am    1  UNL1       -0.1646
     11 C         141.0023  141.4116  170.0631 C.2     1  UNL1        0.0730
     12 C         142.0195  142.2124  170.8205 C.3     1  UNL1        0.1010
     13 C         143.2331  142.7421  170.1156 C.2     1  UNL1        0.1235
     14 F         144.2504  143.5430  170.8729 F       1  UNL1       -0.2085
     15 C         143.4293  142.4709  168.6534 C.2     1  UNL1        0.0269
     16 C         142.4119  141.6700  167.8961 C.2     1  UNL1        0.0179
     17 C         141.1984  141.1404  168.6009 C.2     1  UNL1        0.0670
     18 C         139.1882  138.3447  162.5203 C.3     1  UNL1        0.0739
     19 C         140.1144  138.7789  161.4232 C.3     1  UNL1        0.0392
     20 C         140.2797  140.2375  161.1146 C.3     1  UNL1        0.0998
     21 O         143.1952  140.0368  161.7927 O.2     1  UNL1       -0.2705
     22 C         142.3345  141.0572  162.4769 C.2     1  UNL1        0.2739
     23 C         142.9317  141.9772  163.5001 C.3     1  UNL1        0.2900
     24 O         142.0711  142.9976  164.1843 O.3     1  UNL1       -0.4643
     25 C         140.6133  143.0980  163.8453 C.ar    1  UNL1        0.1528
     26 C         139.7527  144.1184  164.5295 C.ar    1  UNL1        0.0382
     27 C         138.2950  144.2187  164.1905 C.ar    1  UNL1        0.0032
     28 C         137.6979  143.2986  163.1673 C.ar    1  UNL1        0.0015
     29 C         138.5585  142.2783  162.4831 C.ar    1  UNL1        0.0180
     30 C         140.0162  142.1779  162.8221 C.ar    1  UNL1        0.0881
     31 N         140.8768  141.1575  162.1379 N.am    1  UNL1       -0.2529
@<TRIPOS>BOND
     1    21    22    2
     2    22    23    1
     3    23    24    1
     4    24    25    1
     5    25    26   ar
     6    26    27   ar
     7    27    28   ar
     8    28    29   ar
     9    29    30   ar
    10    30    31    1
    11    31    20    1
    12    20    19    1
    13    19    18    1
    14    18     1    1
    15     1     2    1
    16     2     3    1
    17     3     4    1
    18     4     7    1
    19     7     8   am
    20     8     9    2
    21     8    10    1
    22    10    11    2
    23    11    12    1
    24    12    13    1
    25    13    14    1
    26    13    15    2
    27    15    16    1
    28    16    17    2
    29     4     5    1
    30     5     6    1
    31    31    22   am
    32     6     1    1
    33    30    25   ar
    34    17     7    1
    35    17    11    1
@<TRIPOS>MOLECULE
*****
 31 35 0 0 0
SMALL
GASTEIGER

@<TRIPOS>ATOM
      1 N         138.1407  139.6587  162.6185 N.3     1  UNL1       -0.2725
      2 C         137.8009  140.8871  163.4093 C.3     1  UNL1        0.0738
      3 C         138.2833  141.0264  164.8228 C.3     1  UNL1        0.0376
      4 C         139.1055  139.9372  165.4454 C.3     1  UNL1        0.0841
      5 C         139.4453  138.7088  164.6545 C.3     1  UNL1        0.0376
      6 C         138.9629  138.5695  163.2411 C.3     1  UNL1        0.0738
      7 N         139.5879  140.0765  166.8588 N.am    1  UNL1       -0.2423
      8 C         138.9110  139.5275  168.0796 C.2     1  UNL1        0.3310
      9 O         137.6328  138.7428  168.1013 O.2     1  UNL1       -0.2501
     10 N         139.7366  139.9009  169.2749 N.am    1  UNL1       -0.1646
     11 C         140.9239  140.6807  168.7929 C.2     1  UNL1        0.0730
     12 C         142.0768  141.3059  169.5209 C.3     1  UNL1        0.1010
     13 C         143.1378  142.0398  168.7555 C.2     1  UNL1        0.1235
     14 F         144.2907  142.6651  169.4833 F       1  UNL1       -0.2085
     15 C         143.0459  142.1483  167.2622 C.2     1  UNL1        0.0269
     16 C         141.8930  141.5231  166.5343 C.2     1  UNL1        0.0179
     17 C         140.8320  140.7892  167.2997 C.2     1  UNL1        0.0670
     18 C         137.6583  139.5194  161.2050 C.3     1  UNL1        0.0739
     19 C         138.6419  139.2913  160.0958 C.3     1  UNL1        0.0392
     20 C         139.5880  140.3844  159.6958 C.3     1  UNL1        0.0998
     21 O         138.7042  143.1742  160.3560 O.2     1  UNL1       -0.2705
     22 C         139.8704  142.5664  161.0775 C.2     1  UNL1        0.2739
     23 C         140.5947  143.3535  162.1291 C.3     1  UNL1        0.2900
     24 O         141.7609  142.7458  162.8506 O.3     1  UNL1       -0.4643
     25 C         142.2029  141.3508  162.5205 C.ar    1  UNL1        0.1528
     26 C         143.3691  140.7431  163.2420 C.ar    1  UNL1        0.0382
     27 C         143.8110  139.3482  162.9119 C.ar    1  UNL1        0.0032
     28 C         143.0867  138.5611  161.8603 C.ar    1  UNL1        0.0015
     29 C         141.9205  139.1688  161.1388 C.ar    1  UNL1        0.0180
     30 C         141.4786  140.5637  161.4689 C.ar    1  UNL1        0.0881
     31 N         140.3123  141.1715  160.7474 N.am    1  UNL1       -0.2529
@<TRIPOS>BOND
     1    21    22    2
     2    22    23    1
     3    23    24    1
     4    24    25    1
     5    25    26   ar
     6    26    27   ar
     7    27    28   ar
     8    28    29   ar
     9    29    30   ar
    10    30    31    1
    11    31    20    1
    12    20    19    1
    13    19    18    1
    14    18     1    1
    15     1     2    1
    16     2     3    1
    17     3     4    1
    18     4     7    1
    19     7     8   am
    20     8     9    2
    21     8    10    1
    22    10    11    2
    23    11    12    1
    24    12    13    1
    25    13    14    1
    26    13    15    2
    27    15    16    1
    28    16    17    2
    29     4     5    1
    30     5     6    1
    31    31    22   am
    32     6     1    1
    33    30    25   ar
    34    17     7    1
    35    17    11    1
