@<TRIPOS>MOLECULE
*****
 30 33 0 0 0
SMALL
GASTEIGER

@<TRIPOS>ATOM
      1 N         139.3750  138.2934  164.1280 N.3     1  UNL1       -0.2727
      2 C         138.4381  138.0870  165.2811 C.3     1  UNL1        0.0724
      3 C         138.6700  138.8103  166.5745 C.3     1  UNL1        0.0220
      4 C         139.8388  139.7400  166.7149 C.3     1  UNL1        0.0329
      5 C         140.7757  139.9463  165.5618 C.3     1  UNL1        0.0220
      6 C         140.5438  139.2230  164.2684 C.3     1  UNL1        0.0724
      7 C         138.9019  139.5337  167.8680 C.3     1  UNL1        0.0898
      8 C         139.1338  140.2570  169.1614 C.2     1  UNL1        0.2307
      9 O         138.1968  140.0506  170.3146 O.2     1  UNL1       -0.2745
     10 N         140.3025  141.1866  169.3018 N.am    1  UNL1       -0.2441
     11 C         141.2394  141.3930  168.1487 C.ar    1  UNL1        0.1333
     12 N         142.4082  142.3226  168.2891 N.ar    1  UNL1       -0.2291
     13 C         143.3451  142.5290  167.1359 C.ar    1  UNL1        0.1003
     14 C         143.1132  141.8056  165.8425 C.ar    1  UNL1        0.0204
     15 C         141.9445  140.8760  165.7022 C.ar    1  UNL1        0.0001
     16 C         141.0076  140.6696  166.8552 C.ar    1  UNL1        0.0097
     17 C         140.5344  141.9100  170.5953 C.3     1  UNL1        0.0997
     18 C         139.8148  143.1960  170.8749 C.3     1  UNL1        0.0237
     19 C         139.1432  137.5700  162.8345 C.3     1  UNL1        0.0722
     20 C         138.5157  140.6688  157.7351 C.2     1  UNL1        0.4049
     21 O         139.6013  140.6380  156.7003 O.2     1  UNL1       -0.2262
     22 N         138.6726  139.8941  159.0099 N.am    1  UNL1       -0.2460
     23 C         137.5870  139.9249  160.0446 C.3     1  UNL1        0.0968
     24 C         137.7439  139.1502  161.3195 C.3     1  UNL1        0.0231
     25 C         138.9863  138.3447  161.5597 C.3     1  UNL1        0.0194
     26 C         140.0719  138.3140  160.5249 C.3     1  UNL1        0.0231
     27 C         139.9150  139.0886  159.2501 C.3     1  UNL1        0.0968
     28 O         137.2733  141.4742  157.4950 O.3     1  UNL1       -0.4345
     29 C         135.9408  141.9675  155.3198 C.3     1  UNL1        0.0513
     30 C         136.2902  141.0422  156.4476 C.3     1  UNL1        0.2102
@<TRIPOS>BOND
     1    29    30    1
     2    30    28    1
     3    28    20    1
     4    20    21    2
     5    20    22   am
     6    22    23    1
     7    23    24    1
     8    24    25    1
     9    25    19    1
    10    19     1    1
    11     1     2    1
    12     2     3    1
    13     3     4    1
    14     4     5    1
    15     5     6    1
    16     4     7    1
    17     7     8    1
    18     8     9    2
    19     8    10   am
    20    10    17    1
    21    17    18    1
    22    10    11    1
    23    11    12   ar
    24    12    13   ar
    25    13    14   ar
    26    14    15   ar
    27    15    16   ar
    28    25    26    1
    29    26    27    1
    30    27    22    1
    31     6     1    1
    32    16    11   ar
    33    16     4    1
@<TRIPOS>MOLECULE
*****
 30 33 0 0 0
SMALL
GASTEIGER

@<TRIPOS>ATOM
      1 N         140.3500  139.8058  162.9140 N.3     1  UNL1       -0.2727
      2 C         140.6921  139.4424  161.4995 C.3     1  UNL1        0.0724
      3 C         140.7437  140.5062  160.4434 C.3     1  UNL1        0.0220
      4 C         140.4532  141.9336  160.8017 C.3     1  UNL1        0.0329
      5 C         140.1112  142.2970  162.2162 C.3     1  UNL1        0.0220
      6 C         140.0595  141.2331  163.2724 C.3     1  UNL1        0.0724
      7 C         140.7953  141.5701  159.3872 C.3     1  UNL1        0.0898
      8 C         140.8470  142.6340  158.3310 C.2     1  UNL1        0.2307
      9 O         141.1891  142.2706  156.9164 O.2     1  UNL1       -0.2745
     10 N         140.5565  144.0613  158.6894 N.am    1  UNL1       -0.2441
     11 C         140.2144  144.4248  160.1039 C.ar    1  UNL1        0.1333
     12 N         139.9240  145.8521  160.4622 N.ar    1  UNL1       -0.2291
     13 C         139.5819  146.2155  161.8768 C.ar    1  UNL1        0.1003
     14 C         139.5303  145.1516  162.9329 C.ar    1  UNL1        0.0204
     15 C         139.8207  143.7243  162.5746 C.ar    1  UNL1        0.0001
     16 C         140.1628  143.3609  161.1601 C.ar    1  UNL1        0.0097
     17 C         140.6082  145.1252  157.6331 C.3     1  UNL1        0.0997
     18 C         141.9040  145.8160  157.3272 C.3     1  UNL1        0.0237
     19 C         140.2983  138.7419  163.9703 C.3     1  UNL1        0.0722
     20 C         139.4457  140.2551  169.7133 C.2     1  UNL1        0.4049
     21 O         138.0894  140.1029  170.3357 O.2     1  UNL1       -0.2262
     22 N         139.6589  139.8768  168.2776 N.am    1  UNL1       -0.2460
     23 C         141.0152  140.0290  167.6553 C.3     1  UNL1        0.0968
     24 C         141.2284  139.6507  166.2195 C.3     1  UNL1        0.0231
     25 C         140.0852  139.1202  165.4060 C.3     1  UNL1        0.0194
     26 C         138.7288  138.9680  166.0284 C.3     1  UNL1        0.0231
     27 C         138.5157  139.3463  167.4641 C.3     1  UNL1        0.0968
     28 O         140.5889  140.7856  170.5268 O.3     1  UNL1       -0.4345
     29 C         140.2835  143.2572  169.7864 C.3     1  UNL1        0.0513
     30 C         140.6780  142.2524  170.8280 C.3     1  UNL1        0.2102
@<TRIPOS>BOND
     1    29    30    1
     2    30    28    1
     3    28    20    1
     4    20    21    2
     5    20    22   am
     6    22    23    1
     7    23    24    1
     8    24    25    1
     9    25    19    1
    10    19     1    1
    11     1     2    1
    12     2     3    1
    13     3     4    1
    14     4     5    1
    15     5     6    1
    16     4     7    1
    17     7     8    1
    18     8     9    2
    19     8    10   am
    20    10    17    1
    21    17    18    1
    22    10    11    1
    23    11    12   ar
    24    12    13   ar
    25    13    14   ar
    26    14    15   ar
    27    15    16   ar
    28    25    26    1
    29    26    27    1
    30    27    22    1
    31     6     1    1
    32    16    11   ar
    33    16     4    1
@<TRIPOS>MOLECULE
*****
 30 33 0 0 0
SMALL
GASTEIGER

@<TRIPOS>ATOM
      1 N         139.1446  138.7987  164.9979 N.3     1  UNL1       -0.2727
      2 C         140.5001  138.1604  164.9261 C.3     1  UNL1        0.0724
      3 C         141.2061  138.0459  163.6077 C.3     1  UNL1        0.0220
      4 C         140.5567  138.5697  162.3611 C.3     1  UNL1        0.0329
      5 C         139.2013  139.2080  162.4329 C.3     1  UNL1        0.0220
      6 C         138.4952  139.3225  163.7514 C.3     1  UNL1        0.0724
      7 C         141.9123  137.9314  162.2892 C.3     1  UNL1        0.0898
      8 C         142.6184  137.8169  160.9708 C.2     1  UNL1        0.2307
      9 O         143.9739  137.1786  160.8989 O.2     1  UNL1       -0.2745
     10 N         141.9690  138.3407  159.7242 N.am    1  UNL1       -0.2441
     11 C         140.6135  138.9790  159.7961 C.ar    1  UNL1        0.1333
     12 N         139.9641  139.5028  158.5495 N.ar    1  UNL1       -0.2291
     13 C         138.6086  140.1411  158.6214 C.ar    1  UNL1        0.1003
     14 C         137.9025  140.2556  159.9398 C.ar    1  UNL1        0.0204
     15 C         138.5519  139.7318  161.1864 C.ar    1  UNL1        0.0001
     16 C         139.9074  139.0935  161.1145 C.ar    1  UNL1        0.0097
     17 C         142.6752  138.2262  158.4057 C.3     1  UNL1        0.0997
     18 C         142.6676  136.9238  157.6615 C.3     1  UNL1        0.0237
     19 C         138.4384  138.9133  166.3164 C.3     1  UNL1        0.0722
     20 C         140.7359  142.3547  170.6612 C.2     1  UNL1        0.4049
     21 O         140.2843  142.1726  172.0801 O.2     1  UNL1       -0.2262
     22 N         140.1616  141.4943  169.5751 N.am    1  UNL1       -0.2460
     23 C         140.6132  141.6765  168.1563 C.3     1  UNL1        0.0968
     24 C         140.0388  140.8161  167.0701 C.3     1  UNL1        0.0231
     25 C         139.0128  139.7736  167.4026 C.3     1  UNL1        0.0194
     26 C         138.5612  139.5915  168.8214 C.3     1  UNL1        0.0231
     27 C         139.1356  140.4519  169.9076 C.3     1  UNL1        0.0968
     28 O         141.7620  143.3971  170.3287 O.3     1  UNL1       -0.4345
     29 C         143.5781  141.5500  170.1291 C.3     1  UNL1        0.0513
     30 C         143.1718  142.9897  170.0180 C.3     1  UNL1        0.2102
@<TRIPOS>BOND
     1    29    30    1
     2    30    28    1
     3    28    20    1
     4    20    21    2
     5    20    22   am
     6    22    23    1
     7    23    24    1
     8    24    25    1
     9    25    19    1
    10    19     1    1
    11     1     2    1
    12     2     3    1
    13     3     4    1
    14     4     5    1
    15     5     6    1
    16     4     7    1
    17     7     8    1
    18     8     9    2
    19     8    10   am
    20    10    17    1
    21    17    18    1
    22    10    11    1
    23    11    12   ar
    24    12    13   ar
    25    13    14   ar
    26    14    15   ar
    27    15    16   ar
    28    25    26    1
    29    26    27    1
    30    27    22    1
    31     6     1    1
    32    16    11   ar
    33    16     4    1
@<TRIPOS>MOLECULE
*****
 30 33 0 0 0
SMALL
GASTEIGER

@<TRIPOS>ATOM
      1 N         139.7717  139.0271  162.8934 N.3     1  UNL1       -0.2727
      2 C         138.9292  138.4308  161.8052 C.3     1  UNL1        0.0724
      3 C         138.5666  139.2510  160.6028 C.3     1  UNL1        0.0220
      4 C         139.0466  140.6675  160.4887 C.3     1  UNL1        0.0329
      5 C         139.8892  141.2639  161.5769 C.3     1  UNL1        0.0220
      6 C         140.2518  140.4436  162.7793 C.3     1  UNL1        0.0724
      7 C         138.2040  140.0712  159.4003 C.3     1  UNL1        0.0898
      8 C         137.8415  140.8914  158.1979 C.2     1  UNL1        0.2307
      9 O         136.9989  140.2951  157.1095 O.2     1  UNL1       -0.2745
     10 N         138.3215  142.3079  158.0838 N.am    1  UNL1       -0.2441
     11 C         139.1641  142.9043  159.1721 C.ar    1  UNL1        0.1333
     12 N         139.6441  144.3208  159.0580 N.ar    1  UNL1       -0.2291
     13 C         140.4868  144.9171  160.1464 C.ar    1  UNL1        0.1003
     14 C         140.8493  144.0969  161.3487 C.ar    1  UNL1        0.0204
     15 C         140.3693  142.6804  161.4628 C.ar    1  UNL1        0.0001
     16 C         139.5267  142.0841  160.3746 C.ar    1  UNL1        0.0097
     17 C         137.9589  143.1281  156.8813 C.3     1  UNL1        0.0997
     18 C         138.8678  143.1526  155.6883 C.3     1  UNL1        0.0237
     19 C         140.1343  138.2069  164.0959 C.3     1  UNL1        0.0722
     20 C         139.3243  140.4398  169.6057 C.2     1  UNL1        0.4049
     21 O         137.9860  140.3228  170.2731 O.2     1  UNL1       -0.2262
     22 N         139.5268  139.8816  168.2283 N.am    1  UNL1       -0.2460
     23 C         140.8650  139.9986  167.5609 C.3     1  UNL1        0.0968
     24 C         141.0676  139.4404  166.1834 C.3     1  UNL1        0.0231
     25 C         139.9318  138.7651  165.4733 C.3     1  UNL1        0.0194
     26 C         138.5936  138.6481  166.1408 C.3     1  UNL1        0.0231
     27 C         138.3911  139.2063  167.5182 C.3     1  UNL1        0.0968
     28 O         140.4600  141.1151  170.3157 O.3     1  UNL1       -0.4345
     29 C         140.4015  143.5624  169.4453 C.3     1  UNL1        0.0513
     30 C         140.4044  142.5894  170.5869 C.3     1  UNL1        0.2102
@<TRIPOS>BOND
     1    29    30    1
     2    30    28    1
     3    28    20    1
     4    20    21    2
     5    20    22   am
     6    22    23    1
     7    23    24    1
     8    24    25    1
     9    25    19    1
    10    19     1    1
    11     1     2    1
    12     2     3    1
    13     3     4    1
    14     4     5    1
    15     5     6    1
    16     4     7    1
    17     7     8    1
    18     8     9    2
    19     8    10   am
    20    10    17    1
    21    17    18    1
    22    10    11    1
    23    11    12   ar
    24    12    13   ar
    25    13    14   ar
    26    14    15   ar
    27    15    16   ar
    28    25    26    1
    29    26    27    1
    30    27    22    1
    31     6     1    1
    32    16    11   ar
    33    16     4    1
@<TRIPOS>MOLECULE
*****
 30 33 0 0 0
SMALL
GASTEIGER

@<TRIPOS>ATOM
      1 N         140.0645  138.9544  162.8650 N.3     1  UNL1       -0.2727
      2 C         140.9444  138.1743  161.9337 C.3     1  UNL1        0.0724
      3 C         141.7473  138.8877  160.8868 C.3     1  UNL1        0.0220
      4 C         141.6704  140.3813  160.7711 C.3     1  UNL1        0.0329
      5 C         140.7906  141.1614  161.7023 C.3     1  UNL1        0.0220
      6 C         139.9876  140.4479  162.7493 C.3     1  UNL1        0.0724
      7 C         142.5504  139.6012  159.8397 C.3     1  UNL1        0.0898
      8 C         143.3533  140.3147  158.7928 C.2     1  UNL1        0.2307
      9 O         144.2332  139.5346  157.8614 O.2     1  UNL1       -0.2745
     10 N         143.2764  141.8082  158.6771 N.am    1  UNL1       -0.2441
     11 C         142.3966  142.5883  159.6083 C.ar    1  UNL1        0.1333
     12 N         142.3197  144.0819  159.4926 N.ar    1  UNL1       -0.2291
     13 C         141.4398  144.8619  160.4239 C.ar    1  UNL1        0.1003
     14 C         140.6368  144.1485  161.4709 C.ar    1  UNL1        0.0204
     15 C         140.7137  142.6549  161.5866 C.ar    1  UNL1        0.0001
     16 C         141.5936  141.8748  160.6553 C.ar    1  UNL1        0.0097
     17 C         144.0794  142.5217  157.6300 C.3     1  UNL1        0.0997
     18 C         145.5739  142.5823  157.7430 C.3     1  UNL1        0.0237
     19 C         139.2615  138.2409  163.9120 C.3     1  UNL1        0.0722
     20 C         139.2177  140.2692  169.5586 C.2     1  UNL1        0.4049
     21 O         138.0052  140.0677  170.4185 O.2     1  UNL1       -0.2262
     22 N         139.2286  139.7621  168.1470 N.am    1  UNL1       -0.2460
     23 C         140.4411  139.9636  167.2871 C.3     1  UNL1        0.0968
     24 C         140.4521  139.4565  165.8754 C.3     1  UNL1        0.0231
     25 C         139.2506  138.7480  165.3236 C.3     1  UNL1        0.0194
     26 C         138.0381  138.5465  166.1836 C.3     1  UNL1        0.0231
     27 C         138.0272  139.0536  167.5952 C.3     1  UNL1        0.0968
     28 O         140.4192  140.9777  170.1103 O.3     1  UNL1       -0.4345
     29 C         140.4169  143.4817  169.4173 C.3     1  UNL1        0.0513
     30 C         140.3296  142.4283  170.4817 C.3     1  UNL1        0.2102
@<TRIPOS>BOND
     1    29    30    1
     2    30    28    1
     3    28    20    1
     4    20    21    2
     5    20    22   am
     6    22    23    1
     7    23    24    1
     8    24    25    1
     9    25    19    1
    10    19     1    1
    11     1     2    1
    12     2     3    1
    13     3     4    1
    14     4     5    1
    15     5     6    1
    16     4     7    1
    17     7     8    1
    18     8     9    2
    19     8    10   am
    20    10    17    1
    21    17    18    1
    22    10    11    1
    23    11    12   ar
    24    12    13   ar
    25    13    14   ar
    26    14    15   ar
    27    15    16   ar
    28    25    26    1
    29    26    27    1
    30    27    22    1
    31     6     1    1
    32    16    11   ar
    33    16     4    1
@<TRIPOS>MOLECULE
*****
 30 33 0 0 0
SMALL
GASTEIGER

@<TRIPOS>ATOM
      1 N         143.2188  138.4606  162.9152 N.3     1  UNL1       -0.2727
      2 C         144.0724  139.4181  163.6926 C.3     1  UNL1        0.0724
      3 C         143.5443  140.0429  164.9498 C.3     1  UNL1        0.0220
      4 C         142.1626  139.7101  165.4296 C.3     1  UNL1        0.0329
      5 C         141.3090  138.7526  164.6522 C.3     1  UNL1        0.0220
      6 C         141.8371  138.1278  163.3950 C.3     1  UNL1        0.0724
      7 C         143.0162  140.6677  166.2072 C.3     1  UNL1        0.0898
      8 C         142.4880  141.2925  167.4644 C.2     1  UNL1        0.2307
      9 O         143.3416  142.2501  168.2419 O.2     1  UNL1       -0.2745
     10 N         141.1064  140.9598  167.9442 N.am    1  UNL1       -0.2441
     11 C         140.2528  140.0022  167.1667 C.ar    1  UNL1        0.1333
     12 N         138.8711  139.6695  167.6465 N.ar    1  UNL1       -0.2291
     13 C         138.0175  138.7118  166.8690 C.ar    1  UNL1        0.1003
     14 C         138.5456  138.0871  165.6118 C.ar    1  UNL1        0.0204
     15 C         139.9273  138.4198  165.1320 C.ar    1  UNL1        0.0001
     16 C         140.7809  139.3774  165.9094 C.ar    1  UNL1        0.0097
     17 C         140.5782  141.5846  169.2015 C.3     1  UNL1        0.0997
     18 C         140.3038  143.0585  169.2485 C.3     1  UNL1        0.0237
     19 C         143.7469  137.8357  161.6579 C.3     1  UNL1        0.0722
     20 C         142.7912  140.4856  156.3603 C.2     1  UNL1        0.4049
     21 O         142.0743  139.7456  155.2700 O.2     1  UNL1       -0.2262
     22 N         143.0301  139.8231  157.6847 N.am    1  UNL1       -0.2460
     23 C         143.7470  140.5630  158.7748 C.3     1  UNL1        0.0968
     24 C         143.9860  139.9006  160.0993 C.3     1  UNL1        0.0231
     25 C         143.5080  138.4982  160.3335 C.3     1  UNL1        0.0194
     26 C         142.7911  137.7582  159.2432 C.3     1  UNL1        0.0231
     27 C         142.5521  138.4207  157.9189 C.3     1  UNL1        0.0968
     28 O         143.2692  141.8880  156.1261 O.3     1  UNL1       -0.4345
     29 C         145.6617  141.0986  155.4913 C.3     1  UNL1        0.0513
     30 C         144.5732  142.1286  155.4249 C.3     1  UNL1        0.2102
@<TRIPOS>BOND
     1    29    30    1
     2    30    28    1
     3    28    20    1
     4    20    21    2
     5    20    22   am
     6    22    23    1
     7    23    24    1
     8    24    25    1
     9    25    19    1
    10    19     1    1
    11     1     2    1
    12     2     3    1
    13     3     4    1
    14     4     5    1
    15     5     6    1
    16     4     7    1
    17     7     8    1
    18     8     9    2
    19     8    10   am
    20    10    17    1
    21    17    18    1
    22    10    11    1
    23    11    12   ar
    24    12    13   ar
    25    13    14   ar
    26    14    15   ar
    27    15    16   ar
    28    25    26    1
    29    26    27    1
    30    27    22    1
    31     6     1    1
    32    16    11   ar
    33    16     4    1
@<TRIPOS>MOLECULE
*****
 30 33 0 0 0
SMALL
GASTEIGER

@<TRIPOS>ATOM
      1 N         143.3001  139.4740  163.2138 N.3     1  UNL1       -0.2727
      2 C         144.1772  139.9020  164.3528 C.3     1  UNL1        0.0724
      3 C         143.6033  140.0351  165.7322 C.3     1  UNL1        0.0220
      4 C         142.1524  139.7404  165.9726 C.3     1  UNL1        0.0329
      5 C         141.2752  139.3125  164.8336 C.3     1  UNL1        0.0220
      6 C         141.8491  139.1793  163.4542 C.3     1  UNL1        0.0724
      7 C         143.0295  140.1683  167.1118 C.3     1  UNL1        0.0898
      8 C         142.4557  140.3015  168.4912 C.2     1  UNL1        0.2307
      9 O         143.3328  140.7295  169.6304 O.2     1  UNL1       -0.2745
     10 N         141.0047  140.0068  168.7316 N.am    1  UNL1       -0.2441
     11 C         140.1275  139.5789  167.5926 C.ar    1  UNL1        0.1333
     12 N         138.6766  139.2842  167.8330 N.ar    1  UNL1       -0.2291
     13 C         137.7994  138.8562  166.6938 C.ar    1  UNL1        0.1003
     14 C         138.3733  138.7230  165.3144 C.ar    1  UNL1        0.0204
     15 C         139.8242  139.0178  165.0740 C.ar    1  UNL1        0.0001
     16 C         140.7014  139.4457  166.2130 C.ar    1  UNL1        0.0097
     17 C         140.4308  140.1400  170.1112 C.3     1  UNL1        0.0997
     18 C         140.0265  141.4887  170.6282 C.3     1  UNL1        0.0237
     19 C         143.8739  139.3408  161.8342 C.3     1  UNL1        0.0722
     20 C         142.9310  143.6471  157.7641 C.2     1  UNL1        0.4049
     21 O         142.9861  143.3213  156.3009 O.2     1  UNL1       -0.2262
     22 N         143.1668  142.5706  158.7816 N.am    1  UNL1       -0.2460
     23 C         143.1117  142.8965  160.2447 C.3     1  UNL1        0.0968
     24 C         143.3474  141.8199  161.2623 C.3     1  UNL1        0.0231
     25 C         143.6382  140.4174  160.8167 C.3     1  UNL1        0.0194
     26 C         143.6933  140.0915  159.3535 C.3     1  UNL1        0.0231
     27 C         143.4576  141.1681  158.3360 C.3     1  UNL1        0.0968
     28 O         142.6402  145.0496  158.2097 O.3     1  UNL1       -0.4345
     29 C         140.4064  145.3634  159.4988 C.3     1  UNL1        0.0513
     30 C         141.2247  145.5440  158.2547 C.3     1  UNL1        0.2102
@<TRIPOS>BOND
     1    29    30    1
     2    30    28    1
     3    28    20    1
     4    20    21    2
     5    20    22   am
     6    22    23    1
     7    23    24    1
     8    24    25    1
     9    25    19    1
    10    19     1    1
    11     1     2    1
    12     2     3    1
    13     3     4    1
    14     4     5    1
    15     5     6    1
    16     4     7    1
    17     7     8    1
    18     8     9    2
    19     8    10   am
    20    10    17    1
    21    17    18    1
    22    10    11    1
    23    11    12   ar
    24    12    13   ar
    25    13    14   ar
    26    14    15   ar
    27    15    16   ar
    28    25    26    1
    29    26    27    1
    30    27    22    1
    31     6     1    1
    32    16    11   ar
    33    16     4    1
@<TRIPOS>MOLECULE
*****
 30 33 0 0 0
SMALL
GASTEIGER

@<TRIPOS>ATOM
      1 N         139.0409  141.9986  163.0734 N.3     1  UNL1       -0.2727
      2 C         138.7645  142.9756  164.1775 C.3     1  UNL1        0.0724
      3 C         139.4758  142.8435  165.4915 C.3     1  UNL1        0.0220
      4 C         140.4636  141.7343  165.7013 C.3     1  UNL1        0.0329
      5 C         140.7401  140.7573  164.5972 C.3     1  UNL1        0.0220
      6 C         140.0287  140.8895  163.2833 C.3     1  UNL1        0.0724
      7 C         140.1872  142.7113  166.8055 C.3     1  UNL1        0.0898
      8 C         140.8986  142.5792  168.1194 C.2     1  UNL1        0.2307
      9 O         140.6221  143.5562  169.2236 O.2     1  UNL1       -0.2745
     10 N         141.8864  141.4700  168.3293 N.am    1  UNL1       -0.2441
     11 C         142.1628  140.4930  167.2252 C.ar    1  UNL1        0.1333
     12 N         143.1506  139.3839  167.4351 N.ar    1  UNL1       -0.2291
     13 C         143.4271  138.4069  166.3309 C.ar    1  UNL1        0.1003
     14 C         142.7157  138.5390  165.0170 C.ar    1  UNL1        0.0204
     15 C         141.7279  139.6482  164.8071 C.ar    1  UNL1        0.0001
     16 C         141.4514  140.6252  165.9112 C.ar    1  UNL1        0.0097
     17 C         142.5977  141.3379  169.6433 C.3     1  UNL1        0.0997
     18 C         143.8180  142.1645  169.9220 C.3     1  UNL1        0.0237
     19 C         138.3296  142.1308  161.7594 C.3     1  UNL1        0.0722
     20 C         140.9371  145.0584  157.2175 C.2     1  UNL1        0.4049
     21 O         141.9800  146.0998  157.4967 O.2     1  UNL1       -0.2262
     22 N         140.2853  144.3265  158.3530 N.am    1  UNL1       -0.2460
     23 C         139.2424  143.2851  158.0737 C.3     1  UNL1        0.0968
     24 C         138.5905  142.5532  159.2092 C.3     1  UNL1        0.0231
     25 C         138.9814  142.8627  160.6239 C.3     1  UNL1        0.0194
     26 C         140.0243  143.9041  160.9031 C.3     1  UNL1        0.0231
     27 C         140.6762  144.6360  159.7677 C.3     1  UNL1        0.0968
     28 O         140.5462  144.7489  155.8028 O.3     1  UNL1       -0.4345
     29 C         138.9766  146.8191  155.7803 C.3     1  UNL1        0.0513
     30 C         139.5304  145.6014  155.1018 C.3     1  UNL1        0.2102
@<TRIPOS>BOND
     1    29    30    1
     2    30    28    1
     3    28    20    1
     4    20    21    2
     5    20    22   am
     6    22    23    1
     7    23    24    1
     8    24    25    1
     9    25    19    1
    10    19     1    1
    11     1     2    1
    12     2     3    1
    13     3     4    1
    14     4     5    1
    15     5     6    1
    16     4     7    1
    17     7     8    1
    18     8     9    2
    19     8    10   am
    20    10    17    1
    21    17    18    1
    22    10    11    1
    23    11    12   ar
    24    12    13   ar
    25    13    14   ar
    26    14    15   ar
    27    15    16   ar
    28    25    26    1
    29    26    27    1
    30    27    22    1
    31     6     1    1
    32    16    11   ar
    33    16     4    1
@<TRIPOS>MOLECULE
*****
 30 33 0 0 0
SMALL
GASTEIGER

@<TRIPOS>ATOM
      1 N         141.7508  142.6341  165.9322 N.3     1  UNL1       -0.2727
      2 C         140.6686  143.6231  165.6152 C.3     1  UNL1        0.0724
      3 C         140.5493  144.1859  164.2299 C.3     1  UNL1        0.0220
      4 C         141.5122  143.7596  163.1617 C.3     1  UNL1        0.0329
      5 C         142.5945  142.7706  163.4787 C.3     1  UNL1        0.0220
      6 C         142.7137  142.2078  164.8640 C.3     1  UNL1        0.0724
      7 C         140.4300  144.7487  162.8446 C.3     1  UNL1        0.0898
      8 C         140.3107  145.3115  161.4593 C.2     1  UNL1        0.2307
      9 O         139.2284  146.3006  161.1422 O.2     1  UNL1       -0.2745
     10 N         141.2736  144.8852  160.3911 N.am    1  UNL1       -0.2441
     11 C         142.3558  143.8962  160.7082 C.ar    1  UNL1        0.1333
     12 N         143.3187  143.4700  159.6399 N.ar    1  UNL1       -0.2291
     13 C         144.4010  142.4809  159.9570 C.ar    1  UNL1        0.1003
     14 C         144.5203  141.9181  161.3423 C.ar    1  UNL1        0.0204
     15 C         143.5574  142.3443  162.4105 C.ar    1  UNL1        0.0001
     16 C         142.4752  143.3334  162.0935 C.ar    1  UNL1        0.0097
     17 C         141.1542  145.4481  159.0058 C.3     1  UNL1        0.0997
     18 C         140.1696  144.8595  158.0393 C.3     1  UNL1        0.0237
     19 C         141.8702  142.0712  167.3175 C.3     1  UNL1        0.0722
     20 C         137.3442  138.9145  169.6733 C.2     1  UNL1        0.4049
     21 O         136.5975  137.9272  168.8261 O.2     1  UNL1       -0.2262
     22 N         138.4756  139.7037  169.0844 N.am    1  UNL1       -0.2460
     23 C         139.2222  140.6909  169.9316 C.3     1  UNL1        0.0968
     24 C         140.3538  141.4802  169.3427 C.3     1  UNL1        0.0231
     25 C         140.7387  141.2821  167.9065 C.3     1  UNL1        0.0194
     26 C         139.9920  140.2947  167.0593 C.3     1  UNL1        0.0231
     27 C         138.8605  139.5056  167.6482 C.3     1  UNL1        0.0968
     28 O         136.9593  139.1126  171.1095 O.3     1  UNL1       -0.4345
     29 C         135.1365  138.0316  172.6125 C.3     1  UNL1        0.0513
     30 C         136.4649  137.9515  171.9205 C.3     1  UNL1        0.2102
@<TRIPOS>BOND
     1    29    30    1
     2    30    28    1
     3    28    20    1
     4    20    21    2
     5    20    22   am
     6    22    23    1
     7    23    24    1
     8    24    25    1
     9    25    19    1
    10    19     1    1
    11     1     2    1
    12     2     3    1
    13     3     4    1
    14     4     5    1
    15     5     6    1
    16     4     7    1
    17     7     8    1
    18     8     9    2
    19     8    10   am
    20    10    17    1
    21    17    18    1
    22    10    11    1
    23    11    12   ar
    24    12    13   ar
    25    13    14   ar
    26    14    15   ar
    27    15    16   ar
    28    25    26    1
    29    26    27    1
    30    27    22    1
    31     6     1    1
    32    16    11   ar
    33    16     4    1
