@<TRIPOS>MOLECULE
*****
 32 35 0 0 0
SMALL
GASTEIGER

@<TRIPOS>ATOM
      1 N         143.2042  140.9461  162.1715 N.3     1  UNL1       -0.2727
      2 C         141.7242  141.1644  162.2805 C.3     1  UNL1        0.0722
      3 C         141.0816  141.2871  163.6302 C.3     1  UNL1        0.0204
      4 C         141.9189  141.1915  164.8711 C.3     1  UNL1        0.0353
      5 C         143.3990  140.9732  164.7621 C.3     1  UNL1        0.0204
      6 C         144.0416  140.8505  163.4123 C.3     1  UNL1        0.0722
      7 C         141.2763  141.3143  166.2209 C.3     1  UNL1        0.1256
      8 O         142.3550  140.4562  166.8125 O.3     1  UNL1       -0.3786
      9 H         143.1598  140.5332  166.2765 H       1  UNL1        0.2111
     10 C         140.6337  141.4370  167.5707 C.ar    1  UNL1        0.0056
     11 C         140.7623  142.7126  168.3494 C.ar    1  UNL1       -0.0017
     12 C         140.1196  142.8353  169.6992 C.ar    1  UNL1       -0.0002
     13 C         139.3484  141.6825  170.2702 C.ar    1  UNL1       -0.0000
     14 C         139.2197  140.4069  169.4915 C.ar    1  UNL1       -0.0002
     15 C         139.8624  140.2841  168.1417 C.ar    1  UNL1       -0.0017
     16 C         140.1976  142.1724  165.6292 C.ar    1  UNL1        0.0056
     17 C         138.8817  141.5638  165.2443 C.ar    1  UNL1       -0.0017
     18 C         137.8030  142.4219  164.6527 C.ar    1  UNL1       -0.0002
     19 C         138.0401  143.8885  164.4460 C.ar    1  UNL1       -0.0000
     20 C         139.3559  144.4971  164.8309 C.ar    1  UNL1       -0.0002
     21 C         140.4347  143.6390  165.4225 C.ar    1  UNL1       -0.0017
     22 C         143.8468  140.8233  160.8217 C.3     1  UNL1        0.0721
     23 C         143.9994  139.4744  160.1835 C.3     1  UNL1        0.0177
     24 C         143.6390  138.2367  160.9506 C.3     1  UNL1        0.0061
     25 C         142.2485  137.6806  160.8664 C.3     1  UNL1        0.0264
     26 C         138.6206  137.9376  165.6385 C.3     1  UNL1        0.0310
     27 C         139.5276  137.8733  164.4455 C.ar    1  UNL1       -0.0219
     28 C         138.9597  138.0068  163.0636 C.ar    1  UNL1       -0.0046
     29 C         139.8667  137.9425  161.8706 C.ar    1  UNL1       -0.0046
     30 C         141.3415  137.7448  162.0594 C.ar    1  UNL1       -0.0222
     31 C         141.9094  137.6114  163.4413 C.ar    1  UNL1       -0.0046
     32 C         141.0024  137.6756  164.6343 C.ar    1  UNL1       -0.0046
@<TRIPOS>BOND
     1    26    27    1
     2    27    28   ar
     3    28    29   ar
     4    29    30   ar
     5    30    25    1
     6    25    24    1
     7    24    23    1
     8    23    22    1
     9    22     1    1
    10     1     2    1
    11     2     3    1
    12     3     4    1
    13     4     7    1
    14     7     8    1
    15     7    10    1
    16    10    11   ar
    17    11    12   ar
    18    12    13   ar
    19    13    14   ar
    20    14    15   ar
    21     7    16    1
    22    16    17   ar
    23    17    18   ar
    24    18    19   ar
    25    19    20   ar
    26    20    21   ar
    27     4     5    1
    28     5     6    1
    29    30    31   ar
    30    31    32   ar
    31    32    27   ar
    32     6     1    1
    33    15    10   ar
    34    21    16   ar
    35     8     9    1
@<TRIPOS>MOLECULE
*****
 32 35 0 0 0
SMALL
GASTEIGER

@<TRIPOS>ATOM
      1 N         138.3705  138.8202  163.2035 N.3     1  UNL1       -0.2727
      2 C         139.2428  137.8418  163.9327 C.3     1  UNL1        0.0722
      3 C         139.8071  138.1967  165.2765 C.3     1  UNL1        0.0204
      4 C         139.4990  139.5298  165.8910 C.3     1  UNL1        0.0353
      5 C         138.6267  140.5083  165.1618 C.3     1  UNL1        0.0204
      6 C         138.0624  140.1535  163.8180 C.3     1  UNL1        0.0722
      7 C         140.0633  139.8847  167.2348 C.3     1  UNL1        0.1256
      8 O         138.8497  139.3036  167.8978 O.3     1  UNL1       -0.3786
      9 H         138.4614  138.6249  167.3238 H       1  UNL1        0.2111
     10 C         140.6276  140.2395  168.5785 C.ar    1  UNL1        0.0056
     11 C         141.9115  139.6170  169.0410 C.ar    1  UNL1       -0.0017
     12 C         142.4758  139.9718  170.3847 C.ar    1  UNL1       -0.0002
     13 C         141.7561  140.9491  171.2661 C.ar    1  UNL1       -0.0000
     14 C         140.4720  141.5717  170.8037 C.ar    1  UNL1       -0.0002
     15 C         139.9078  141.2168  169.4599 C.ar    1  UNL1       -0.0017
     16 C         141.2769  140.4657  166.5718 C.ar    1  UNL1        0.0056
     17 C         142.2474  139.5672  165.8642 C.ar    1  UNL1       -0.0017
     18 C         143.4610  140.1483  165.2011 C.ar    1  UNL1       -0.0002
     19 C         143.7041  141.6277  165.2457 C.ar    1  UNL1       -0.0000
     20 C         142.7335  142.5262  165.9533 C.ar    1  UNL1       -0.0002
     21 C         141.5199  141.9452  166.6163 C.ar    1  UNL1       -0.0017
     22 C         137.8062  138.4654  161.8597 C.3     1  UNL1        0.0721
     23 C         137.8064  139.4797  160.7546 C.3     1  UNL1        0.0177
     24 C         139.1032  140.0441  160.2548 C.3     1  UNL1        0.0061
     25 C         139.2945  141.5298  160.1779 C.3     1  UNL1        0.0264
     26 C         138.9043  144.8662  165.1495 C.3     1  UNL1        0.0310
     27 C         139.0018  144.0321  163.9066 C.ar    1  UNL1       -0.0219
     28 C         137.7991  143.8505  163.0289 C.ar    1  UNL1       -0.0046
     29 C         137.8966  143.0164  161.7860 C.ar    1  UNL1       -0.0046
     30 C         139.1969  142.3639  161.4208 C.ar    1  UNL1       -0.0222
     31 C         140.3997  142.5455  162.2985 C.ar    1  UNL1       -0.0046
     32 C         140.3021  143.3796  163.5413 C.ar    1  UNL1       -0.0046
@<TRIPOS>BOND
     1    26    27    1
     2    27    28   ar
     3    28    29   ar
     4    29    30   ar
     5    30    25    1
     6    25    24    1
     7    24    23    1
     8    23    22    1
     9    22     1    1
    10     1     2    1
    11     2     3    1
    12     3     4    1
    13     4     7    1
    14     7     8    1
    15     7    10    1
    16    10    11   ar
    17    11    12   ar
    18    12    13   ar
    19    13    14   ar
    20    14    15   ar
    21     7    16    1
    22    16    17   ar
    23    17    18   ar
    24    18    19   ar
    25    19    20   ar
    26    20    21   ar
    27     4     5    1
    28     5     6    1
    29    30    31   ar
    30    31    32   ar
    31    32    27   ar
    32     6     1    1
    33    15    10   ar
    34    21    16   ar
    35     8     9    1
@<TRIPOS>MOLECULE
*****
 32 35 0 0 0
SMALL
GASTEIGER

@<TRIPOS>ATOM
      1 N         141.9455  139.3204  161.8413 N.3     1  UNL1       -0.2727
      2 C         142.3917  138.5568  163.0529 C.3     1  UNL1        0.0722
      3 C         142.3661  139.2105  164.4028 C.3     1  UNL1        0.0204
      4 C         141.8944  140.6276  164.5411 C.3     1  UNL1        0.0353
      5 C         141.4482  141.3912  163.3295 C.3     1  UNL1        0.0204
      6 C         141.4738  140.7376  161.9796 C.3     1  UNL1        0.0722
      7 C         141.8689  141.2812  165.8909 C.3     1  UNL1        0.1256
      8 O         141.6430  139.9449  166.5337 O.3     1  UNL1       -0.3786
      9 H         142.0068  139.2475  165.9662 H       1  UNL1        0.2111
     10 C         141.8434  141.9348  167.2408 C.ar    1  UNL1        0.0056
     11 C         143.0802  141.9520  168.0893 C.ar    1  UNL1       -0.0017
     12 C         143.0546  142.6056  169.4392 C.ar    1  UNL1       -0.0002
     13 C         141.7923  143.2421  169.9405 C.ar    1  UNL1       -0.0000
     14 C         140.5555  143.2250  169.0920 C.ar    1  UNL1       -0.0002
     15 C         140.5810  142.5714  167.7421 C.ar    1  UNL1       -0.0017
     16 C         142.0949  142.6175  165.2481 C.ar    1  UNL1        0.0056
     17 C         143.4910  143.0873  164.9654 C.ar    1  UNL1       -0.0017
     18 C         143.7170  144.4237  164.3226 C.ar    1  UNL1       -0.0002
     19 C         142.5467  145.2902  163.9626 C.ar    1  UNL1       -0.0000
     20 C         141.1506  144.8204  164.2453 C.ar    1  UNL1       -0.0002
     21 C         140.9246  143.4841  164.8881 C.ar    1  UNL1       -0.0017
     22 C         141.9710  138.6667  160.4915 C.3     1  UNL1        0.0721
     23 C         140.7154  138.5824  159.6751 C.3     1  UNL1        0.0177
     24 C         139.4694  137.9999  160.2737 C.3     1  UNL1        0.0061
     25 C         138.4875  138.8902  160.9758 C.3     1  UNL1        0.0264
     26 C         138.4246  139.1483  166.9699 C.3     1  UNL1        0.0310
     27 C         138.4403  139.0838  165.4714 C.ar    1  UNL1       -0.0219
     28 C         138.8668  137.8232  164.7794 C.ar    1  UNL1       -0.0046
     29 C         138.8826  137.7587  163.2808 C.ar    1  UNL1       -0.0046
     30 C         138.4718  138.9547  162.4743 C.ar    1  UNL1       -0.0222
     31 C         138.0452  140.2153  163.1663 C.ar    1  UNL1       -0.0046
     32 C         138.0295  140.2799  164.6648 C.ar    1  UNL1       -0.0046
@<TRIPOS>BOND
     1    26    27    1
     2    27    28   ar
     3    28    29   ar
     4    29    30   ar
     5    30    25    1
     6    25    24    1
     7    24    23    1
     8    23    22    1
     9    22     1    1
    10     1     2    1
    11     2     3    1
    12     3     4    1
    13     4     7    1
    14     7     8    1
    15     7    10    1
    16    10    11   ar
    17    11    12   ar
    18    12    13   ar
    19    13    14   ar
    20    14    15   ar
    21     7    16    1
    22    16    17   ar
    23    17    18   ar
    24    18    19   ar
    25    19    20   ar
    26    20    21   ar
    27     4     5    1
    28     5     6    1
    29    30    31   ar
    30    31    32   ar
    31    32    27   ar
    32     6     1    1
    33    15    10   ar
    34    21    16   ar
    35     8     9    1
@<TRIPOS>MOLECULE
*****
 32 35 0 0 0
SMALL
GASTEIGER

@<TRIPOS>ATOM
      1 N         141.0070  139.2021  161.9854 N.3     1  UNL1       -0.2727
      2 C         140.8055  138.4211  163.2501 C.3     1  UNL1        0.0722
      3 C         140.9359  139.1014  164.5805 C.3     1  UNL1        0.0204
      4 C         141.2676  140.5628  164.6463 C.3     1  UNL1        0.0353
      5 C         141.4691  141.3438  163.3816 C.3     1  UNL1        0.0204
      6 C         141.3387  140.6635  162.0511 C.3     1  UNL1        0.0722
      7 C         141.3980  141.2431  165.9768 C.3     1  UNL1        0.1256
      8 O         140.5322  140.1889  166.6007 O.3     1  UNL1       -0.3786
      9 H         140.6018  139.3684  166.0880 H       1  UNL1        0.2111
     10 C         141.5283  141.9235  167.3072 C.ar    1  UNL1        0.0056
     11 C         140.3727  142.6958  167.8711 C.ar    1  UNL1       -0.0017
     12 C         140.5030  143.3761  169.2015 C.ar    1  UNL1       -0.0002
     13 C         141.7890  143.2842  169.9682 C.ar    1  UNL1       -0.0000
     14 C         142.9447  142.5118  169.4043 C.ar    1  UNL1       -0.0002
     15 C         142.8144  141.8314  168.0739 C.ar    1  UNL1       -0.0017
     16 C         142.2637  142.2973  165.3529 C.ar    1  UNL1        0.0056
     17 C         143.7385  142.0665  165.2063 C.ar    1  UNL1       -0.0017
     18 C         144.6043  143.1207  164.5824 C.ar    1  UNL1       -0.0002
     19 C         143.9952  144.4056  164.1051 C.ar    1  UNL1       -0.0000
     20 C         142.5203  144.6364  164.2518 C.ar    1  UNL1       -0.0002
     21 C         141.6546  143.5823  164.8757 C.ar    1  UNL1       -0.0017
     22 C         140.8766  138.5217  160.6549 C.3     1  UNL1        0.0721
     23 C         139.5310  138.4004  160.0032 C.3     1  UNL1        0.0177
     24 C         138.5452  139.5265  160.1028 C.3     1  UNL1        0.0061
     25 C         137.6722  139.6541  161.3159 C.3     1  UNL1        0.0264
     26 C         138.2111  144.4271  164.9114 C.3     1  UNL1        0.0310
     27 C         138.0764  143.2339  164.0125 C.ar    1  UNL1       -0.0219
     28 C         137.9018  141.8661  164.6029 C.ar    1  UNL1       -0.0046
     29 C         137.7670  140.6728  163.7040 C.ar    1  UNL1       -0.0046
     30 C         137.8069  140.8473  162.2148 C.ar    1  UNL1       -0.0222
     31 C         137.9816  142.2151  161.6244 C.ar    1  UNL1       -0.0046
     32 C         138.1163  143.4084  162.5233 C.ar    1  UNL1       -0.0046
@<TRIPOS>BOND
     1    26    27    1
     2    27    28   ar
     3    28    29   ar
     4    29    30   ar
     5    30    25    1
     6    25    24    1
     7    24    23    1
     8    23    22    1
     9    22     1    1
    10     1     2    1
    11     2     3    1
    12     3     4    1
    13     4     7    1
    14     7     8    1
    15     7    10    1
    16    10    11   ar
    17    11    12   ar
    18    12    13   ar
    19    13    14   ar
    20    14    15   ar
    21     7    16    1
    22    16    17   ar
    23    17    18   ar
    24    18    19   ar
    25    19    20   ar
    26    20    21   ar
    27     4     5    1
    28     5     6    1
    29    30    31   ar
    30    31    32   ar
    31    32    27   ar
    32     6     1    1
    33    15    10   ar
    34    21    16   ar
    35     8     9    1
@<TRIPOS>MOLECULE
*****
 32 35 0 0 0
SMALL
GASTEIGER

@<TRIPOS>ATOM
      1 N         140.2105  142.5688  161.3752 N.3     1  UNL1       -0.2727
      2 C         140.9944  141.3167  161.6351 C.3     1  UNL1        0.0722
      3 C         141.4672  141.0024  163.0235 C.3     1  UNL1        0.0204
      4 C         141.1562  141.9403  164.1520 C.3     1  UNL1        0.0353
      5 C         140.3722  143.1925  163.8921 C.3     1  UNL1        0.0204
      6 C         139.8994  143.5068  162.5037 C.3     1  UNL1        0.0722
      7 C         141.6290  141.6261  165.5404 C.3     1  UNL1        0.1256
      8 O         140.2274  141.7789  166.0524 O.3     1  UNL1       -0.3786
      9 H         139.5997  141.5916  165.3370 H       1  UNL1        0.2111
     10 C         142.1019  141.3119  166.9289 C.ar    1  UNL1        0.0056
     11 C         141.8332  139.9619  167.5251 C.ar    1  UNL1       -0.0017
     12 C         142.3061  139.6477  168.9135 C.ar    1  UNL1       -0.0002
     13 C         143.0475  140.6834  169.7057 C.ar    1  UNL1       -0.0000
     14 C         143.3162  142.0334  169.1094 C.ar    1  UNL1       -0.0002
     15 C         142.8433  142.3476  167.7210 C.ar    1  UNL1       -0.0017
     16 C         143.0307  141.4733  165.0285 C.ar    1  UNL1        0.0056
     17 C         143.8294  142.6870  164.6557 C.ar    1  UNL1       -0.0017
     18 C         145.2310  142.5342  164.1438 C.ar    1  UNL1       -0.0002
     19 C         145.8339  141.1678  164.0047 C.ar    1  UNL1       -0.0000
     20 C         145.0352  139.9541  164.3775 C.ar    1  UNL1       -0.0002
     21 C         143.6336  140.1069  164.8894 C.ar    1  UNL1       -0.0017
     22 C         139.7377  142.8830  159.9868 C.3     1  UNL1        0.0721
     23 C         138.4785  142.2576  159.4638 C.3     1  UNL1        0.0177
     24 C         138.4006  140.7713  159.2778 C.3     1  UNL1        0.0061
     25 C         137.4674  139.9573  160.1243 C.3     1  UNL1        0.0264
     26 C         139.0270  138.4629  165.7220 C.3     1  UNL1        0.0310
     27 C         138.6371  138.8365  164.3226 C.ar    1  UNL1       -0.0219
     28 C         138.8958  137.8847  163.1925 C.ar    1  UNL1       -0.0046
     29 C         138.5059  138.2583  161.7931 C.ar    1  UNL1       -0.0046
     30 C         137.8573  139.5837  161.5238 C.ar    1  UNL1       -0.0222
     31 C         137.5987  140.5355  162.6538 C.ar    1  UNL1       -0.0046
     32 C         137.9885  140.1619  164.0533 C.ar    1  UNL1       -0.0046
@<TRIPOS>BOND
     1    26    27    1
     2    27    28   ar
     3    28    29   ar
     4    29    30   ar
     5    30    25    1
     6    25    24    1
     7    24    23    1
     8    23    22    1
     9    22     1    1
    10     1     2    1
    11     2     3    1
    12     3     4    1
    13     4     7    1
    14     7     8    1
    15     7    10    1
    16    10    11   ar
    17    11    12   ar
    18    12    13   ar
    19    13    14   ar
    20    14    15   ar
    21     7    16    1
    22    16    17   ar
    23    17    18   ar
    24    18    19   ar
    25    19    20   ar
    26    20    21   ar
    27     4     5    1
    28     5     6    1
    29    30    31   ar
    30    31    32   ar
    31    32    27   ar
    32     6     1    1
    33    15    10   ar
    34    21    16   ar
    35     8     9    1
@<TRIPOS>MOLECULE
*****
 32 35 0 0 0
SMALL
GASTEIGER

@<TRIPOS>ATOM
      1 N         143.1335  138.7715  163.2201 N.3     1  UNL1       -0.2727
      2 C         143.6120  140.1358  163.6196 C.3     1  UNL1        0.0722
      3 C         143.0793  140.7831  164.8634 C.3     1  UNL1        0.0204
      4 C         142.0679  140.0661  165.7078 C.3     1  UNL1        0.0353
      5 C         141.5893  138.7017  165.3084 C.3     1  UNL1        0.0204
      6 C         142.1220  138.0544  164.0645 C.3     1  UNL1        0.0722
      7 C         141.5351  140.7134  166.9517 C.3     1  UNL1        0.1256
      8 O         142.5720  139.9995  167.7673 O.3     1  UNL1       -0.3786
      9 H         143.3408  139.8005  167.2103 H       1  UNL1        0.2111
     10 C         141.0024  141.3607  168.1955 C.ar    1  UNL1        0.0056
     11 C         139.8033  140.7829  168.8871 C.ar    1  UNL1       -0.0017
     12 C         139.2706  141.4302  170.1309 C.ar    1  UNL1       -0.0002
     13 C         139.9368  142.6553  170.6832 C.ar    1  UNL1       -0.0000
     14 C         141.1359  143.2332  169.9916 C.ar    1  UNL1       -0.0002
     15 C         141.6687  142.5859  168.7477 C.ar    1  UNL1       -0.0017
     16 C         140.4982  141.4273  166.1360 C.ar    1  UNL1        0.0056
     17 C         139.3581  140.6601  165.5348 C.ar    1  UNL1       -0.0017
     18 C         138.3212  141.3740  164.7192 C.ar    1  UNL1       -0.0002
     19 C         138.4245  142.8550  164.5048 C.ar    1  UNL1       -0.0000
     20 C         139.5646  143.6221  165.1060 C.ar    1  UNL1       -0.0002
     21 C         140.6015  142.9082  165.9216 C.ar    1  UNL1       -0.0017
     22 C         143.6662  138.1242  161.9763 C.3     1  UNL1        0.0721
     23 C         143.1175  138.5118  160.6351 C.3     1  UNL1        0.0177
     24 C         143.7959  139.5780  159.8269 C.3     1  UNL1        0.0061
     25 C         143.1084  140.8896  159.5882 C.3     1  UNL1        0.0264
     26 C         143.0623  145.0783  163.8838 C.3     1  UNL1        0.0310
     27 C         143.0738  144.0311  162.8099 C.ar    1  UNL1       -0.0219
     28 C         141.7910  143.3830  162.3806 C.ar    1  UNL1       -0.0046
     29 C         141.8026  142.3358  161.3067 C.ar    1  UNL1       -0.0046
     30 C         143.0968  141.9368  160.6621 C.ar    1  UNL1       -0.0222
     31 C         144.3796  142.5849  161.0914 C.ar    1  UNL1       -0.0046
     32 C         144.3681  143.6321  162.1653 C.ar    1  UNL1       -0.0046
@<TRIPOS>BOND
     1    26    27    1
     2    27    28   ar
     3    28    29   ar
     4    29    30   ar
     5    30    25    1
     6    25    24    1
     7    24    23    1
     8    23    22    1
     9    22     1    1
    10     1     2    1
    11     2     3    1
    12     3     4    1
    13     4     7    1
    14     7     8    1
    15     7    10    1
    16    10    11   ar
    17    11    12   ar
    18    12    13   ar
    19    13    14   ar
    20    14    15   ar
    21     7    16    1
    22    16    17   ar
    23    17    18   ar
    24    18    19   ar
    25    19    20   ar
    26    20    21   ar
    27     4     5    1
    28     5     6    1
    29    30    31   ar
    30    31    32   ar
    31    32    27   ar
    32     6     1    1
    33    15    10   ar
    34    21    16   ar
    35     8     9    1
@<TRIPOS>MOLECULE
*****
 32 35 0 0 0
SMALL
GASTEIGER

@<TRIPOS>ATOM
      1 N         139.5176  139.2510  160.5105 N.3     1  UNL1       -0.2727
      2 C         139.0624  138.1682  161.4434 C.3     1  UNL1        0.0722
      3 C         139.3162  138.2917  162.9166 C.3     1  UNL1        0.0204
      4 C         140.0251  139.4980  163.4569 C.3     1  UNL1        0.0353
      5 C         140.4804  140.5810  162.5241 C.3     1  UNL1        0.0204
      6 C         140.2266  140.4574  161.0509 C.3     1  UNL1        0.0722
      7 C         140.2789  139.6216  164.9302 C.3     1  UNL1        0.1256
      8 O         140.8169  138.2216  164.9549 O.3     1  UNL1       -0.3786
      9 H         141.1642  137.9932  164.0785 H       1  UNL1        0.2111
     10 C         140.5326  139.7451  166.4034 C.ar    1  UNL1        0.0056
     11 C         141.9360  139.6883  166.9300 C.ar    1  UNL1       -0.0017
     12 C         142.1897  139.8119  168.4033 C.ar    1  UNL1       -0.0002
     13 C         141.0402  139.9922  169.3498 C.ar    1  UNL1       -0.0000
     14 C         139.6367  140.0489  168.8231 C.ar    1  UNL1       -0.0002
     15 C         139.3830  139.9254  167.3499 C.ar    1  UNL1       -0.0017
     16 C         139.7409  141.0216  164.9054 C.ar    1  UNL1        0.0056
     17 C         138.2978  141.2648  164.5766 C.ar    1  UNL1       -0.0017
     18 C         137.7598  142.6647  164.5518 C.ar    1  UNL1       -0.0002
     19 C         138.6649  143.8215  164.8560 C.ar    1  UNL1       -0.0000
     20 C         140.1080  143.5783  165.1849 C.ar    1  UNL1       -0.0002
     21 C         140.6460  142.1783  165.2096 C.ar    1  UNL1       -0.0017
     22 C         139.2639  139.1275  159.0373 C.3     1  UNL1        0.0721
     23 C         140.4083  139.2010  158.0704 C.3     1  UNL1        0.0177
     24 C         141.6129  138.3289  158.2664 C.3     1  UNL1        0.0061
     25 C         142.9256  138.9400  158.6581 C.3     1  UNL1        0.0264
     26 C         144.3877  139.4473  164.4550 C.3     1  UNL1        0.0310
     27 C         144.0222  139.3205  163.0058 C.ar    1  UNL1       -0.0219
     28 C         143.3152  138.0919  162.5154 C.ar    1  UNL1       -0.0046
     29 C         142.9496  137.9650  161.0661 C.ar    1  UNL1       -0.0046
     30 C         143.2911  139.0669  160.1073 C.ar    1  UNL1       -0.0222
     31 C         143.9981  140.2955  160.5977 C.ar    1  UNL1       -0.0046
     32 C         144.3636  140.4223  162.0470 C.ar    1  UNL1       -0.0046
@<TRIPOS>BOND
     1    26    27    1
     2    27    28   ar
     3    28    29   ar
     4    29    30   ar
     5    30    25    1
     6    25    24    1
     7    24    23    1
     8    23    22    1
     9    22     1    1
    10     1     2    1
    11     2     3    1
    12     3     4    1
    13     4     7    1
    14     7     8    1
    15     7    10    1
    16    10    11   ar
    17    11    12   ar
    18    12    13   ar
    19    13    14   ar
    20    14    15   ar
    21     7    16    1
    22    16    17   ar
    23    17    18   ar
    24    18    19   ar
    25    19    20   ar
    26    20    21   ar
    27     4     5    1
    28     5     6    1
    29    30    31   ar
    30    31    32   ar
    31    32    27   ar
    32     6     1    1
    33    15    10   ar
    34    21    16   ar
    35     8     9    1
@<TRIPOS>MOLECULE
*****
 32 35 0 0 0
SMALL
GASTEIGER

@<TRIPOS>ATOM
      1 N         138.9601  142.2594  161.5185 N.3     1  UNL1       -0.2727
      2 C         140.2047  141.4756  161.8124 C.3     1  UNL1        0.0722
      3 C         140.6040  141.2072  163.2332 C.3     1  UNL1        0.0204
      4 C         139.7587  141.7225  164.3600 C.3     1  UNL1        0.0353
      5 C         138.5139  142.5063  164.0661 C.3     1  UNL1        0.0204
      6 C         138.1146  142.7748  162.6454 C.3     1  UNL1        0.0722
      7 C         140.1580  141.4540  165.7807 C.3     1  UNL1        0.1256
      8 O         139.8826  142.8868  166.1289 O.3     1  UNL1       -0.3786
      9 H         139.2231  143.2475  165.5158 H       1  UNL1        0.2111
     10 C         140.5573  141.1855  167.2014 C.ar    1  UNL1        0.0056
     11 C         141.8120  141.7927  167.7554 C.ar    1  UNL1       -0.0017
     12 C         142.2113  141.5242  169.1761 C.ar    1  UNL1       -0.0002
     13 C         141.3559  140.6485  170.0429 C.ar    1  UNL1       -0.0000
     14 C         140.1011  140.0412  169.4889 C.ar    1  UNL1       -0.0002
     15 C         139.7018  140.3097  168.0682 C.ar    1  UNL1       -0.0017
     16 C         140.4334  140.0212  165.4325 C.ar    1  UNL1        0.0056
     17 C         141.8458  139.5185  165.3874 C.ar    1  UNL1       -0.0017
     18 C         142.1212  138.0857  165.0392 C.ar    1  UNL1       -0.0002
     19 C         140.9841  137.1556  164.7362 C.ar    1  UNL1       -0.0000
     20 C         139.5716  137.6583  164.7813 C.ar    1  UNL1       -0.0002
     21 C         139.2963  139.0911  165.1295 C.ar    1  UNL1       -0.0017
     22 C         138.5608  142.5279  160.0978 C.3     1  UNL1        0.0721
     23 C         139.4272  143.3865  159.2247 C.3     1  UNL1        0.0177
     24 C         140.0596  144.6267  159.7833 C.3     1  UNL1        0.0061
     25 C         141.5451  144.6869  159.9817 C.3     1  UNL1        0.0264
     26 C         143.9210  143.2647  165.3046 C.3     1  UNL1        0.0310
     27 C         143.3271  143.6202  163.9739 C.ar    1  UNL1       -0.0219
     28 C         142.1460  144.5420  163.9019 C.ar    1  UNL1       -0.0046
     29 C         141.5520  144.8976  162.5712 C.ar    1  UNL1       -0.0046
     30 C         142.1391  144.3314  161.3124 C.ar    1  UNL1       -0.0222
     31 C         143.3202  143.4095  161.3844 C.ar    1  UNL1       -0.0046
     32 C         143.9142  143.0540  162.7151 C.ar    1  UNL1       -0.0046
@<TRIPOS>BOND
     1    26    27    1
     2    27    28   ar
     3    28    29   ar
     4    29    30   ar
     5    30    25    1
     6    25    24    1
     7    24    23    1
     8    23    22    1
     9    22     1    1
    10     1     2    1
    11     2     3    1
    12     3     4    1
    13     4     7    1
    14     7     8    1
    15     7    10    1
    16    10    11   ar
    17    11    12   ar
    18    12    13   ar
    19    13    14   ar
    20    14    15   ar
    21     7    16    1
    22    16    17   ar
    23    17    18   ar
    24    18    19   ar
    25    19    20   ar
    26    20    21   ar
    27     4     5    1
    28     5     6    1
    29    30    31   ar
    30    31    32   ar
    31    32    27   ar
    32     6     1    1
    33    15    10   ar
    34    21    16   ar
    35     8     9    1
@<TRIPOS>MOLECULE
*****
 32 35 0 0 0
SMALL
GASTEIGER

@<TRIPOS>ATOM
      1 N         142.7406  139.1575  160.7351 N.3     1  UNL1       -0.2727
      2 C         143.8263  138.6247  161.6224 C.3     1  UNL1        0.0722
      3 C         143.8215  138.9442  163.0879 C.3     1  UNL1        0.0204
      4 C         142.7311  139.7965  163.6662 C.3     1  UNL1        0.0353
      5 C         141.6453  140.3294  162.7789 C.3     1  UNL1        0.0204
      6 C         141.6500  140.0098  161.3133 C.3     1  UNL1        0.0722
      7 C         142.7263  140.1160  165.1318 C.3     1  UNL1        0.1256
      8 O         144.1374  140.6140  165.0278 O.3     1  UNL1       -0.3786
      9 H         144.3074  140.9171  164.1222 H       1  UNL1        0.2111
     10 C         142.7216  140.4356  166.5973 C.ar    1  UNL1        0.0056
     11 C         142.5938  139.3320  167.6052 C.ar    1  UNL1       -0.0017
     12 C         142.5891  139.6515  169.0707 C.ar    1  UNL1       -0.0002
     13 C         142.7121  141.0746  169.5285 C.ar    1  UNL1       -0.0000
     14 C         142.8398  142.1783  168.5206 C.ar    1  UNL1       -0.0002
     15 C         142.8446  141.8588  167.0551 C.ar    1  UNL1       -0.0017
     16 C         141.3152  139.6180  165.2358 C.ar    1  UNL1        0.0056
     17 C         140.2127  140.5620  165.6145 C.ar    1  UNL1       -0.0017
     18 C         138.8016  140.0640  165.7185 C.ar    1  UNL1       -0.0002
     19 C         138.4930  138.6220  165.4438 C.ar    1  UNL1       -0.0000
     20 C         139.5955  137.6781  165.0651 C.ar    1  UNL1       -0.0002
     21 C         141.0066  138.1761  164.9611 C.ar    1  UNL1       -0.0017
     22 C         142.7453  138.8380  159.2695 C.3     1  UNL1        0.0721
     23 C         142.8999  139.9389  158.2624 C.3     1  UNL1        0.0177
     24 C         143.8441  141.0732  158.5303 C.3     1  UNL1        0.0061
     25 C         143.3119  142.4020  158.9787 C.3     1  UNL1        0.0264
     26 C         144.0660  144.1730  164.6615 C.3     1  UNL1        0.0310
     27 C         143.8775  143.7303  163.2408 C.ar    1  UNL1       -0.0219
     28 C         144.8630  142.7912  162.6108 C.ar    1  UNL1       -0.0046
     29 C         144.6744  142.3485  161.1901 C.ar    1  UNL1       -0.0046
     30 C         143.5004  142.8448  160.3994 C.ar    1  UNL1       -0.0222
     31 C         142.5149  143.7838  161.0293 C.ar    1  UNL1       -0.0046
     32 C         142.7035  144.2266  162.4501 C.ar    1  UNL1       -0.0046
@<TRIPOS>BOND
     1    26    27    1
     2    27    28   ar
     3    28    29   ar
     4    29    30   ar
     5    30    25    1
     6    25    24    1
     7    24    23    1
     8    23    22    1
     9    22     1    1
    10     1     2    1
    11     2     3    1
    12     3     4    1
    13     4     7    1
    14     7     8    1
    15     7    10    1
    16    10    11   ar
    17    11    12   ar
    18    12    13   ar
    19    13    14   ar
    20    14    15   ar
    21     7    16    1
    22    16    17   ar
    23    17    18   ar
    24    18    19   ar
    25    19    20   ar
    26    20    21   ar
    27     4     5    1
    28     5     6    1
    29    30    31   ar
    30    31    32   ar
    31    32    27   ar
    32     6     1    1
    33    15    10   ar
    34    21    16   ar
    35     8     9    1
