@<TRIPOS>MOLECULE
*****
 43 48 0 0 0
SMALL
GASTEIGER

@<TRIPOS>ATOM
      1 N         141.8201  139.5270  158.4979 N.3     1  UNL1       -0.2726
      2 C         140.5594  139.0506  159.1564 C.3     1  UNL1        0.0738
      3 C         140.6271  138.3137  160.4611 C.3     1  UNL1        0.0369
      4 C         141.9554  138.0533  161.1074 C.3     1  UNL1        0.0745
      5 C         143.2161  138.5297  160.4489 C.3     1  UNL1        0.0369
      6 C         143.1485  139.2666  159.1442 C.3     1  UNL1        0.0738
      7 N         142.0232  137.3163  162.4122 N.pl3   1  UNL1       -0.3058
      8 H         142.5459  136.4849  162.4815 H       1  UNL1        0.1495
      9 C         141.2945  137.8463  163.6115 C.ar    1  UNL1        0.1981
     10 N         139.8482  137.6170  163.9368 N.ar    1  UNL1       -0.2138
     11 C         139.5440  138.3276  165.2224 C.ar    1  UNL1        0.0999
     12 C         138.2838  138.4523  166.0263 C.ar    1  UNL1        0.0207
     13 C         138.2819  139.2454  167.2995 C.ar    1  UNL1        0.0016
     14 C         139.5401  139.9138  167.7687 C.ar    1  UNL1        0.0016
     15 C         140.8003  139.7890  166.9647 C.ar    1  UNL1        0.0188
     16 C         140.8023  138.9959  165.6915 C.ar    1  UNL1        0.0801
     17 N         141.8841  138.6984  164.6959 N.ar    1  UNL1       -0.2956
     18 C         143.3059  139.1703  164.7716 C.3     1  UNL1        0.1354
     19 C         143.6840  140.5063  164.2039 C.ar    1  UNL1        0.0006
     20 C         144.6994  140.5933  163.1034 C.ar    1  UNL1       -0.0001
     21 C         145.0775  141.9292  162.5356 C.ar    1  UNL1        0.0294
     22 C         144.4402  143.1781  163.0685 C.ar    1  UNL1        0.1401
     23 F         144.8183  144.5141  162.5008 F       1  UNL1       -0.2042
     24 C         143.4247  143.0911  164.1691 C.ar    1  UNL1        0.0294
     25 C         143.0466  141.7552  164.7368 C.ar    1  UNL1       -0.0001
     26 C         141.7524  140.2639  157.1932 C.3     1  UNL1        0.0722
     27 C         141.5982  141.7560  157.1816 C.3     1  UNL1        0.0191
     28 C         142.7585  142.6328  157.5488 C.3     1  UNL1        0.0226
     29 C         142.5260  143.9055  158.3080 C.3     1  UNL1        0.0871
     30 N         142.7048  143.9338  159.7970 N.pl3   1  UNL1       -0.3313
     31 H         143.5431  144.2732  160.1858 H       1  UNL1        0.1469
     32 C         139.4089  142.4669  162.4870 C.ar    1  UNL1        0.3122
     33 C         140.5065  141.5341  162.0685 C.ar    1  UNL1        0.0784
     34 C         141.6050  142.0231  161.1719 C.ar    1  UNL1        0.0223
     35 C         141.6061  143.4449  160.6937 C.ar    1  UNL1        0.0678
     36 C         140.5085  144.3776  161.1122 C.ar    1  UNL1        0.1622
     37 N         140.2459  145.8216  160.8024 N.ar    1  UNL1       -0.0468
     38 O         138.9850  146.2250  161.5076 O.2     1  UNL1       -0.2413
     39 N         138.4683  145.0304  162.2533 N.ar    1  UNL1       -0.0419
     40 C         139.4099  143.8887  162.0089 C.ar    1  UNL1        0.2132
     41 O         138.5074  141.9612  164.8707 O.2     1  UNL1        0.0415
     42 N         138.3103  141.9779  163.3837 N.pl3   1  UNL1        0.0827
     43 O         137.0147  141.5057  162.7935 O.co2   1  UNL1       -0.5760
@<TRIPOS>UNITY_ATOM_ATTR
42 1
charge 1
43 1
charge -1
@<TRIPOS>BOND
     1    41    42    2
     2    42    43    1
     3    42    32    1
     4    32    33   ar
     5    33    34   ar
     6    34    35   ar
     7    35    30    1
     8    30    29    1
     9    29    28    1
    10    28    27    1
    11    27    26    1
    12    26     1    1
    13     1     2    1
    14     2     3    1
    15     3     4    1
    16     4     7    1
    17     7     9    1
    18     9    10   ar
    19    10    11   ar
    20    11    12   ar
    21    12    13   ar
    22    13    14   ar
    23    14    15   ar
    24    15    16   ar
    25    16    17   ar
    26    17    18    1
    27    18    19    1
    28    19    20   ar
    29    20    21   ar
    30    21    22   ar
    31    22    23    1
    32    22    24   ar
    33    24    25   ar
    34     4     5    1
    35     5     6    1
    36    35    36   ar
    37    36    37   ar
    38    37    38   ar
    39    38    39   ar
    40    39    40   ar
    41    40    32   ar
    42     6     1    1
    43    40    36   ar
    44    17     9   ar
    45    25    19   ar
    46    16    11   ar
    47    30    31    1
    48     7     8    1
@<TRIPOS>MOLECULE
*****
 43 48 0 0 0
SMALL
GASTEIGER

@<TRIPOS>ATOM
      1 N         138.4759  138.8908  162.8240 N.3     1  UNL1       -0.2726
      2 C         138.0848  140.1419  163.5533 C.3     1  UNL1        0.0738
      3 C         138.1806  140.1991  165.0491 C.3     1  UNL1        0.0369
      4 C         138.6676  139.0053  165.8157 C.3     1  UNL1        0.0745
      5 C         139.0588  137.7542  165.0864 C.3     1  UNL1        0.0369
      6 C         138.9629  137.6970  163.5906 C.3     1  UNL1        0.0738
      7 N         138.7636  139.0625  167.3116 N.pl3   1  UNL1       -0.3058
      8 H         138.1568  138.5194  167.8649 H       1  UNL1        0.1495
      9 C         139.7841  139.9470  167.9643 C.ar    1  UNL1        0.1981
     10 N         139.5111  140.9807  169.0164 N.ar    1  UNL1       -0.2138
     11 C         140.8151  141.6258  169.3819 C.ar    1  UNL1        0.0999
     12 C         141.1595  142.7094  170.3603 C.ar    1  UNL1        0.0207
     13 C         142.5827  143.1579  170.5125 C.ar    1  UNL1        0.0016
     14 C         143.6617  142.5228  169.6863 C.ar    1  UNL1        0.0016
     15 C         143.3173  141.4392  168.7078 C.ar    1  UNL1        0.0188
     16 C         141.8940  140.9906  168.5556 C.ar    1  UNL1        0.0801
     17 N         141.2568  139.9531  167.6795 N.ar    1  UNL1       -0.2956
     18 C         141.9676  139.0759  166.6921 C.3     1  UNL1        0.1354
     19 C         142.6539  139.6850  165.5056 C.ar    1  UNL1        0.0006
     20 C         141.9574  140.7374  164.6949 C.ar    1  UNL1       -0.0001
     21 C         142.6437  141.3466  163.5083 C.ar    1  UNL1        0.0294
     22 C         144.0265  140.9034  163.1325 C.ar    1  UNL1        0.1401
     23 F         144.7129  141.5125  161.9459 F       1  UNL1       -0.2042
     24 C         144.7230  139.8509  163.9432 C.ar    1  UNL1        0.0294
     25 C         144.0367  139.2418  165.1298 C.ar    1  UNL1       -0.0001
     26 C         138.3800  138.8336  161.3282 C.3     1  UNL1        0.0722
     27 C         138.2722  140.1019  160.5345 C.3     1  UNL1        0.0191
     28 C         139.4984  140.9206  160.2586 C.3     1  UNL1        0.0226
     29 C         139.4288  142.0784  159.3075 C.3     1  UNL1        0.0871
     30 N         139.2451  143.4711  159.8335 N.pl3   1  UNL1       -0.3313
     31 H         139.1544  144.2256  159.2077 H       1  UNL1        0.1469
     32 C         139.1086  144.2000  164.2720 C.ar    1  UNL1        0.3122
     33 C         137.8715  143.7619  163.5455 C.ar    1  UNL1        0.0784
     34 C         137.9171  143.5189  162.0661 C.ar    1  UNL1        0.0223
     35 C         139.1997  143.7141  161.3130 C.ar    1  UNL1        0.0678
     36 C         140.4367  144.1521  162.0396 C.ar    1  UNL1        0.1622
     37 N         141.8342  144.4247  161.5678 N.ar    1  UNL1       -0.0468
     38 O         142.6524  144.8362  162.7558 O.2     1  UNL1       -0.2413
     39 N         141.7605  144.8179  163.9617 N.ar    1  UNL1       -0.0419
     40 C         140.3911  144.3951  163.5191 C.ar    1  UNL1        0.2132
     41 O         138.2002  145.5379  166.3056 O.2     1  UNL1        0.0415
     42 N         139.0630  144.4430  165.7515 N.pl3   1  UNL1        0.0827
     43 O         139.8802  143.5911  166.6770 O.co2   1  UNL1       -0.5760
@<TRIPOS>UNITY_ATOM_ATTR
42 1
charge 1
43 1
charge -1
@<TRIPOS>BOND
     1    41    42    2
     2    42    43    1
     3    42    32    1
     4    32    33   ar
     5    33    34   ar
     6    34    35   ar
     7    35    30    1
     8    30    29    1
     9    29    28    1
    10    28    27    1
    11    27    26    1
    12    26     1    1
    13     1     2    1
    14     2     3    1
    15     3     4    1
    16     4     7    1
    17     7     9    1
    18     9    10   ar
    19    10    11   ar
    20    11    12   ar
    21    12    13   ar
    22    13    14   ar
    23    14    15   ar
    24    15    16   ar
    25    16    17   ar
    26    17    18    1
    27    18    19    1
    28    19    20   ar
    29    20    21   ar
    30    21    22   ar
    31    22    23    1
    32    22    24   ar
    33    24    25   ar
    34     4     5    1
    35     5     6    1
    36    35    36   ar
    37    36    37   ar
    38    37    38   ar
    39    38    39   ar
    40    39    40   ar
    41    40    32   ar
    42     6     1    1
    43    40    36   ar
    44    17     9   ar
    45    25    19   ar
    46    16    11   ar
    47    30    31    1
    48     7     8    1
@<TRIPOS>MOLECULE
*****
 43 48 0 0 0
SMALL
GASTEIGER

@<TRIPOS>ATOM
      1 N         141.8750  139.8494  161.5019 N.3     1  UNL1       -0.2726
      2 C         141.2222  140.8731  162.3828 C.3     1  UNL1        0.0738
      3 C         140.5507  140.4489  163.6552 C.3     1  UNL1        0.0369
      4 C         140.5319  139.0010  164.0468 C.3     1  UNL1        0.0745
      5 C         141.1847  137.9773  163.1659 C.3     1  UNL1        0.0369
      6 C         141.8563  138.4015  161.8935 C.3     1  UNL1        0.0738
      7 N         139.8604  138.5767  165.3192 N.pl3   1  UNL1       -0.3058
      8 H         139.2060  137.8412  165.3090 H       1  UNL1        0.1495
      9 C         140.1859  139.2731  166.6073 C.ar    1  UNL1        0.1981
     10 N         139.1950  139.8745  167.5593 N.ar    1  UNL1       -0.2138
     11 C         139.9562  140.4635  168.7099 C.ar    1  UNL1        0.0999
     12 C         139.5074  141.1853  169.9459 C.ar    1  UNL1        0.0207
     13 C         140.5200  141.6697  170.9409 C.ar    1  UNL1        0.0016
     14 C         141.9814  141.4323  170.6998 C.ar    1  UNL1        0.0016
     15 C         142.4302  140.7105  169.4638 C.ar    1  UNL1        0.0188
     16 C         141.4176  140.2261  168.4688 C.ar    1  UNL1        0.0801
     17 N         141.5595  139.4904  167.1694 N.ar    1  UNL1       -0.2956
     18 C         142.8487  139.0495  166.5422 C.3     1  UNL1        0.1354
     19 C         143.5532  139.9453  165.5668 C.ar    1  UNL1        0.0006
     20 C         144.3834  139.3515  164.4678 C.ar    1  UNL1       -0.0001
     21 C         145.0880  140.2472  163.4924 C.ar    1  UNL1        0.0294
     22 C         144.9622  141.7368  163.6162 C.ar    1  UNL1        0.1401
     23 F         145.6667  142.6327  162.6409 F       1  UNL1       -0.2042
     24 C         144.1320  142.3306  164.7154 C.ar    1  UNL1        0.0294
     25 C         143.4275  141.4349  165.6907 C.ar    1  UNL1       -0.0001
     26 C         142.5465  140.2736  160.2295 C.3     1  UNL1        0.0722
     27 C         143.6262  141.3145  160.2622 C.3     1  UNL1        0.0191
     28 C         143.5485  142.5046  159.3525 C.3     1  UNL1        0.0226
     29 C         142.2626  143.2657  159.2214 C.3     1  UNL1        0.0871
     30 N         142.0486  144.5192  160.0169 N.pl3   1  UNL1       -0.3313
     31 H         142.3275  145.3890  159.6495 H       1  UNL1        0.1469
     32 C         140.1322  144.3044  164.0828 C.ar    1  UNL1        0.3122
     33 C         141.5557  144.7574  163.9476 C.ar    1  UNL1        0.0784
     34 C         142.1945  144.8290  162.5924 C.ar    1  UNL1        0.0223
     35 C         141.4097  144.4476  161.3722 C.ar    1  UNL1        0.0678
     36 C         139.9862  143.9946  161.5074 C.ar    1  UNL1        0.1622
     37 N         138.9711  143.5586  160.4928 N.ar    1  UNL1       -0.0468
     38 O         137.7049  143.2175  161.2211 O.2     1  UNL1       -0.2413
     39 N         137.9375  143.4427  162.6858 N.ar    1  UNL1       -0.0419
     40 C         139.3474  143.9230  162.8627 C.ar    1  UNL1        0.2132
     41 O         138.4167  145.2080  165.8123 O.2     1  UNL1        0.0415
     42 N         139.4934  144.2328  165.4381 N.pl3   1  UNL1        0.0827
     43 O         139.9312  143.1860  166.4192 O.co2   1  UNL1       -0.5760
@<TRIPOS>UNITY_ATOM_ATTR
42 1
charge 1
43 1
charge -1
@<TRIPOS>BOND
     1    41    42    2
     2    42    43    1
     3    42    32    1
     4    32    33   ar
     5    33    34   ar
     6    34    35   ar
     7    35    30    1
     8    30    29    1
     9    29    28    1
    10    28    27    1
    11    27    26    1
    12    26     1    1
    13     1     2    1
    14     2     3    1
    15     3     4    1
    16     4     7    1
    17     7     9    1
    18     9    10   ar
    19    10    11   ar
    20    11    12   ar
    21    12    13   ar
    22    13    14   ar
    23    14    15   ar
    24    15    16   ar
    25    16    17   ar
    26    17    18    1
    27    18    19    1
    28    19    20   ar
    29    20    21   ar
    30    21    22   ar
    31    22    23    1
    32    22    24   ar
    33    24    25   ar
    34     4     5    1
    35     5     6    1
    36    35    36   ar
    37    36    37   ar
    38    37    38   ar
    39    38    39   ar
    40    39    40   ar
    41    40    32   ar
    42     6     1    1
    43    40    36   ar
    44    17     9   ar
    45    25    19   ar
    46    16    11   ar
    47    30    31    1
    48     7     8    1
@<TRIPOS>MOLECULE
*****
 43 48 0 0 0
SMALL
GASTEIGER

@<TRIPOS>ATOM
      1 N         142.9339  140.6577  161.1768 N.3     1  UNL1       -0.2726
      2 C         144.3225  140.6316  161.7435 C.3     1  UNL1        0.0738
      3 C         144.5395  140.2557  163.1793 C.3     1  UNL1        0.0369
      4 C         143.3681  139.9057  164.0483 C.3     1  UNL1        0.0745
      5 C         141.9795  139.9318  163.4815 C.3     1  UNL1        0.0369
      6 C         141.7624  140.3078  162.0458 C.3     1  UNL1        0.0738
      7 N         143.5850  139.5297  165.4842 N.pl3   1  UNL1       -0.3058
      8 H         144.3011  138.8984  165.7250 H       1  UNL1        0.1495
      9 C         142.7110  140.1157  166.5532 C.ar    1  UNL1        0.1981
     10 N         141.7322  139.3615  167.4035 N.ar    1  UNL1       -0.2138
     11 C         141.0786  140.3385  168.3354 C.ar    1  UNL1        0.0999
     12 C         140.0343  140.1670  169.3984 C.ar    1  UNL1        0.0207
     13 C         139.5648  141.3535  170.1869 C.ar    1  UNL1        0.0016
     14 C         140.1396  142.7116  169.9124 C.ar    1  UNL1        0.0016
     15 C         141.1840  142.8831  168.8493 C.ar    1  UNL1        0.0188
     16 C         141.6535  141.6966  168.0608 C.ar    1  UNL1        0.0801
     17 N         142.6624  141.5589  166.9594 N.ar    1  UNL1       -0.2956
     18 C         143.4791  142.6693  166.3681 C.3     1  UNL1        0.1354
     19 C         143.1102  143.2422  165.0318 C.ar    1  UNL1        0.0006
     20 C         144.1816  143.7379  164.1066 C.ar    1  UNL1       -0.0001
     21 C         143.8128  144.3109  162.7703 C.ar    1  UNL1        0.0294
     22 C         142.3723  144.3879  162.3592 C.ar    1  UNL1        0.1401
     23 F         142.0033  144.9609  161.0229 F       1  UNL1       -0.2042
     24 C         141.3007  143.8922  163.2844 C.ar    1  UNL1        0.0294
     25 C         141.6696  143.3193  164.6207 C.ar    1  UNL1       -0.0001
     26 C         142.7169  141.0337  159.7410 C.3     1  UNL1        0.0722
     27 C         141.7062  140.2931  158.9162 C.3     1  UNL1        0.0191
     28 C         140.3189  140.8415  158.7598 C.3     1  UNL1        0.0226
     29 C         139.1846  139.9238  158.4113 C.3     1  UNL1        0.0871
     30 N         137.9364  139.9250  159.2431 N.pl3   1  UNL1       -0.3313
     31 H         137.0545  139.8854  158.8074 H       1  UNL1        0.1469
     32 C         138.2231  140.1088  163.7303 C.ar    1  UNL1        0.3122
     33 C         138.3183  138.7878  163.0261 C.ar    1  UNL1        0.0784
     34 C         138.2227  138.7265  161.5305 C.ar    1  UNL1        0.0223
     35 C         138.0320  139.9863  160.7389 C.ar    1  UNL1        0.0678
     36 C         137.9368  141.3073  161.4430 C.ar    1  UNL1        0.1622
     37 N         137.7503  142.7055  160.9327 N.ar    1  UNL1       -0.0468
     38 O         137.7306  143.6308  162.1131 O.2     1  UNL1       -0.2413
     39 N         137.9049  142.8046  163.3529 N.ar    1  UNL1       -0.0419
     40 C         138.0324  141.3686  162.9387 C.ar    1  UNL1        0.2132
     41 O         139.0817  141.2815  165.8839 O.2     1  UNL1        0.0415
     42 N         138.3187  140.1701  165.2260 N.pl3   1  UNL1        0.0827
     43 O         137.6513  139.1200  166.0638 O.co2   1  UNL1       -0.5760
@<TRIPOS>UNITY_ATOM_ATTR
42 1
charge 1
43 1
charge -1
@<TRIPOS>BOND
     1    41    42    2
     2    42    43    1
     3    42    32    1
     4    32    33   ar
     5    33    34   ar
     6    34    35   ar
     7    35    30    1
     8    30    29    1
     9    29    28    1
    10    28    27    1
    11    27    26    1
    12    26     1    1
    13     1     2    1
    14     2     3    1
    15     3     4    1
    16     4     7    1
    17     7     9    1
    18     9    10   ar
    19    10    11   ar
    20    11    12   ar
    21    12    13   ar
    22    13    14   ar
    23    14    15   ar
    24    15    16   ar
    25    16    17   ar
    26    17    18    1
    27    18    19    1
    28    19    20   ar
    29    20    21   ar
    30    21    22   ar
    31    22    23    1
    32    22    24   ar
    33    24    25   ar
    34     4     5    1
    35     5     6    1
    36    35    36   ar
    37    36    37   ar
    38    37    38   ar
    39    38    39   ar
    40    39    40   ar
    41    40    32   ar
    42     6     1    1
    43    40    36   ar
    44    17     9   ar
    45    25    19   ar
    46    16    11   ar
    47    30    31    1
    48     7     8    1
@<TRIPOS>MOLECULE
*****
 43 48 0 0 0
SMALL
GASTEIGER

@<TRIPOS>ATOM
      1 N         142.4977  140.0218  161.2505 N.3     1  UNL1       -0.2726
      2 C         143.8536  139.5999  161.7339 C.3     1  UNL1        0.0738
      3 C         144.3667  140.0946  163.0537 C.3     1  UNL1        0.0369
      4 C         143.5241  141.0113  163.8901 C.3     1  UNL1        0.0745
      5 C         142.1682  141.4332  163.4067 C.3     1  UNL1        0.0369
      6 C         141.6550  140.9385  162.0869 C.3     1  UNL1        0.0738
      7 N         144.0372  141.5062  165.2099 N.pl3   1  UNL1       -0.3058
      8 H         144.9578  141.8471  165.2837 H       1  UNL1        0.1495
      9 C         143.1474  141.4815  166.4173 C.ar    1  UNL1        0.1981
     10 N         142.8535  142.6431  167.3198 N.ar    1  UNL1       -0.2138
     11 C         141.9198  142.1705  168.3945 C.ar    1  UNL1        0.0999
     12 C         141.2909  142.8760  169.5593 C.ar    1  UNL1        0.0207
     13 C         140.3788  142.1278  170.4857 C.ar    1  UNL1        0.0016
     14 C         140.0956  140.6742  170.2474 C.ar    1  UNL1        0.0016
     15 C         140.7246  139.9687  169.0826 C.ar    1  UNL1        0.0188
     16 C         141.6367  140.7168  168.1561 C.ar    1  UNL1        0.0801
     17 N         142.3954  140.2910  166.9342 N.ar    1  UNL1       -0.2956
     18 C         142.4010  138.9162  166.3345 C.3     1  UNL1        0.1354
     19 C         141.3327  138.5189  165.3593 C.ar    1  UNL1        0.0006
     20 C         139.9005  138.8721  165.6308 C.ar    1  UNL1       -0.0001
     21 C         138.8321  138.4748  164.6557 C.ar    1  UNL1        0.0294
     22 C         139.1962  137.7244  163.4090 C.ar    1  UNL1        0.1401
     23 F         138.1279  137.3270  162.4338 F       1  UNL1       -0.2042
     24 C         140.6286  137.3712  163.1375 C.ar    1  UNL1        0.0294
     25 C         141.6968  137.7685  164.1126 C.ar    1  UNL1       -0.0001
     26 C         141.9847  139.5270  159.9307 C.3     1  UNL1        0.0722
     27 C         140.7399  138.6918  159.8753 C.3     1  UNL1        0.0191
     28 C         139.5329  139.1923  159.1387 C.3     1  UNL1        0.0226
     29 C         138.3348  139.6740  159.9019 C.3     1  UNL1        0.0871
     30 N         138.0498  141.1433  160.0011 N.pl3   1  UNL1       -0.3313
     31 H         137.7411  141.6394  159.2087 H       1  UNL1        0.1469
     32 C         138.6060  143.2836  163.9203 C.ar    1  UNL1        0.3122
     33 C         138.0180  141.9039  163.8960 C.ar    1  UNL1        0.0784
     34 C         137.8326  141.1905  162.5897 C.ar    1  UNL1        0.0223
     35 C         138.2352  141.8568  161.3075 C.ar    1  UNL1        0.0678
     36 C         138.8232  143.2365  161.3317 C.ar    1  UNL1        0.1622
     37 N         139.3099  144.1395  160.2373 N.ar    1  UNL1       -0.0468
     38 O         139.7960  145.4110  160.8674 O.2     1  UNL1       -0.2413
     39 N         139.6098  145.2938  162.3512 N.ar    1  UNL1       -0.0419
     40 C         139.0086  143.9499  162.6382 C.ar    1  UNL1        0.2132
     41 O         137.8921  145.1412  165.5907 O.2     1  UNL1        0.0415
     42 N         138.7913  143.9970  165.2267 N.pl3   1  UNL1        0.0827
     43 O         139.8758  143.5662  166.1692 O.co2   1  UNL1       -0.5760
@<TRIPOS>UNITY_ATOM_ATTR
42 1
charge 1
43 1
charge -1
@<TRIPOS>BOND
     1    41    42    2
     2    42    43    1
     3    42    32    1
     4    32    33   ar
     5    33    34   ar
     6    34    35   ar
     7    35    30    1
     8    30    29    1
     9    29    28    1
    10    28    27    1
    11    27    26    1
    12    26     1    1
    13     1     2    1
    14     2     3    1
    15     3     4    1
    16     4     7    1
    17     7     9    1
    18     9    10   ar
    19    10    11   ar
    20    11    12   ar
    21    12    13   ar
    22    13    14   ar
    23    14    15   ar
    24    15    16   ar
    25    16    17   ar
    26    17    18    1
    27    18    19    1
    28    19    20   ar
    29    20    21   ar
    30    21    22   ar
    31    22    23    1
    32    22    24   ar
    33    24    25   ar
    34     4     5    1
    35     5     6    1
    36    35    36   ar
    37    36    37   ar
    38    37    38   ar
    39    38    39   ar
    40    39    40   ar
    41    40    32   ar
    42     6     1    1
    43    40    36   ar
    44    17     9   ar
    45    25    19   ar
    46    16    11   ar
    47    30    31    1
    48     7     8    1
@<TRIPOS>MOLECULE
*****
 43 48 0 0 0
SMALL
GASTEIGER

@<TRIPOS>ATOM
      1 N         142.3400  140.2698  160.6349 N.3     1  UNL1       -0.2726
      2 C         143.1097  138.9996  160.8449 C.3     1  UNL1        0.0738
      3 C         143.0837  138.3191  162.1813 C.3     1  UNL1        0.0369
      4 C         142.2881  138.9088  163.3079 C.3     1  UNL1        0.0745
      5 C         141.5184  140.1791  163.0980 C.3     1  UNL1        0.0369
      6 C         141.5443  140.8596  161.7615 C.3     1  UNL1        0.0738
      7 N         142.2620  138.2284  164.6445 N.pl3   1  UNL1       -0.3058
      8 H         142.5222  137.2819  164.7202 H       1  UNL1        0.1495
      9 C         141.8396  138.9901  165.8657 C.ar    1  UNL1        0.1981
     10 N         142.7348  139.8100  166.7468 N.ar    1  UNL1       -0.2138
     11 C         141.8963  140.3923  167.8459 C.ar    1  UNL1        0.0999
     12 C         142.2371  141.2820  169.0045 C.ar    1  UNL1        0.0207
     13 C         141.1646  141.7117  169.9611 C.ar    1  UNL1        0.0016
     14 C         139.7513  141.2517  169.7591 C.ar    1  UNL1        0.0016
     15 C         139.4104  140.3619  168.6005 C.ar    1  UNL1        0.0188
     16 C         140.4829  139.9323  167.6439 C.ar    1  UNL1        0.0801
     17 N         140.4479  139.0657  166.4201 N.ar    1  UNL1       -0.2956
     18 C         139.2343  138.3928  165.8507 C.3     1  UNL1        0.1354
     19 C         138.7336  138.7757  164.4896 C.ar    1  UNL1        0.0006
     20 C         138.1996  140.1563  164.2479 C.ar    1  UNL1       -0.0001
     21 C         137.6989  140.5393  162.8867 C.ar    1  UNL1        0.0294
     22 C         137.7323  139.5414  161.7673 C.ar    1  UNL1        0.1401
     23 F         137.2316  139.9243  160.4061 F       1  UNL1       -0.2042
     24 C         138.2663  138.1607  162.0090 C.ar    1  UNL1        0.0294
     25 C         138.7670  137.7778  163.3701 C.ar    1  UNL1       -0.0001
     26 C         142.3660  140.9503  159.2984 C.3     1  UNL1        0.0722
     27 C         143.6224  141.6156  158.8199 C.3     1  UNL1        0.0191
     28 C         144.1076  142.8692  159.4855 C.3     1  UNL1        0.0226
     29 C         144.3775  142.8786  160.9610 C.3     1  UNL1        0.0871
     30 N         144.0524  144.0959  161.7750 N.pl3   1  UNL1       -0.3313
     31 H         144.7169  144.8160  161.8705 H       1  UNL1        0.1469
     32 C         140.0403  144.4558  163.7808 C.ar    1  UNL1        0.3122
     33 C         141.2114  143.9053  164.5394 C.ar    1  UNL1        0.0784
     34 C         142.5487  143.7854  163.8709 C.ar    1  UNL1        0.0223
     35 C         142.7150  144.2159  162.4436 C.ar    1  UNL1        0.0678
     36 C         141.5439  144.7664  161.6850 C.ar    1  UNL1        0.1622
     37 N         141.4055  145.2679  160.2781 N.ar    1  UNL1       -0.0468
     38 O         139.9825  145.6979  160.0773 O.2     1  UNL1       -0.2413
     39 N         139.2415  145.4620  161.3600 N.ar    1  UNL1       -0.0419
     40 C         140.2065  144.8863  162.3536 C.ar    1  UNL1        0.2132
     41 O         137.4947  143.9380  163.8300 O.2     1  UNL1        0.0415
     42 N         138.7029  144.5758  164.4495 N.pl3   1  UNL1        0.0827
     43 O         138.5736  145.3335  165.7375 O.co2   1  UNL1       -0.5760
@<TRIPOS>UNITY_ATOM_ATTR
42 1
charge 1
43 1
charge -1
@<TRIPOS>BOND
     1    41    42    2
     2    42    43    1
     3    42    32    1
     4    32    33   ar
     5    33    34   ar
     6    34    35   ar
     7    35    30    1
     8    30    29    1
     9    29    28    1
    10    28    27    1
    11    27    26    1
    12    26     1    1
    13     1     2    1
    14     2     3    1
    15     3     4    1
    16     4     7    1
    17     7     9    1
    18     9    10   ar
    19    10    11   ar
    20    11    12   ar
    21    12    13   ar
    22    13    14   ar
    23    14    15   ar
    24    15    16   ar
    25    16    17   ar
    26    17    18    1
    27    18    19    1
    28    19    20   ar
    29    20    21   ar
    30    21    22   ar
    31    22    23    1
    32    22    24   ar
    33    24    25   ar
    34     4     5    1
    35     5     6    1
    36    35    36   ar
    37    36    37   ar
    38    37    38   ar
    39    38    39   ar
    40    39    40   ar
    41    40    32   ar
    42     6     1    1
    43    40    36   ar
    44    17     9   ar
    45    25    19   ar
    46    16    11   ar
    47    30    31    1
    48     7     8    1
@<TRIPOS>MOLECULE
*****
 43 48 0 0 0
SMALL
GASTEIGER

@<TRIPOS>ATOM
      1 N         144.1818  139.4223  162.2700 N.3     1  UNL1       -0.2726
      2 C         144.3910  140.8513  161.8647 C.3     1  UNL1        0.0738
      3 C         144.3860  141.9338  162.9029 C.3     1  UNL1        0.0369
      4 C         144.1719  141.5874  164.3466 C.3     1  UNL1        0.0745
      5 C         143.9627  140.1585  164.7519 C.3     1  UNL1        0.0369
      6 C         143.9677  139.0759  163.7137 C.3     1  UNL1        0.0738
      7 N         144.1669  142.6700  165.3850 N.pl3   1  UNL1       -0.3058
      8 H         144.7004  143.4859  165.2480 H       1  UNL1        0.1495
      9 C         143.3489  142.5091  166.6320 C.ar    1  UNL1        0.1981
     10 N         143.8310  142.7228  168.0363 N.ar    1  UNL1       -0.2138
     11 C         142.6852  142.4520  168.9659 C.ar    1  UNL1        0.0999
     12 C         142.5719  142.5032  170.4607 C.ar    1  UNL1        0.0207
     13 C         141.2685  142.1735  171.1258 C.ar    1  UNL1        0.0016
     14 C         140.0784  141.7925  170.2960 C.ar    1  UNL1        0.0016
     15 C         140.1917  141.7413  168.8011 C.ar    1  UNL1        0.0188
     16 C         141.4951  142.0711  168.1361 C.ar    1  UNL1        0.0801
     17 N         141.9053  142.1064  166.6937 N.ar    1  UNL1       -0.2956
     18 C         141.0262  141.7938  165.5192 C.3     1  UNL1        0.1354
     19 C         140.5290  142.9016  164.6386 C.ar    1  UNL1        0.0006
     20 C         140.9021  142.9299  163.1861 C.ar    1  UNL1       -0.0001
     21 C         140.4050  144.0377  162.3054 C.ar    1  UNL1        0.0294
     22 C         139.5347  145.1173  162.8774 C.ar    1  UNL1        0.1401
     23 F         139.0375  146.2252  161.9968 F       1  UNL1       -0.2042
     24 C         139.1616  145.0890  164.3300 C.ar    1  UNL1        0.0294
     25 C         139.6588  143.9812  165.2106 C.ar    1  UNL1       -0.0001
     26 C         144.1868  138.3399  161.2317 C.3     1  UNL1        0.0722
     27 C         142.9069  137.9390  160.5599 C.3     1  UNL1        0.0191
     28 C         141.7034  138.8301  160.6464 C.3     1  UNL1        0.0226
     29 C         140.4482  138.4688  159.9089 C.3     1  UNL1        0.0871
     30 N         139.1103  138.8241  160.4867 N.pl3   1  UNL1       -0.3313
     31 H         138.3650  139.0654  159.8904 H       1  UNL1        0.1469
     32 C         138.5034  138.7868  164.9455 C.ar    1  UNL1        0.3122
     33 C         139.1146  137.5998  164.2617 C.ar    1  UNL1        0.0784
     34 C         139.3168  137.6122  162.7756 C.ar    1  UNL1        0.0223
     35 C         138.9080  138.8117  161.9729 C.ar    1  UNL1        0.0678
     36 C         138.2969  139.9987  162.6567 C.ar    1  UNL1        0.1622
     37 N         137.7993  141.3130  162.1321 N.ar    1  UNL1       -0.0468
     38 O         137.2896  142.1128  163.2942 O.2     1  UNL1       -0.2413
     39 N         137.4720  141.2928  164.5369 N.ar    1  UNL1       -0.0419
     40 C         138.0946  139.9863  164.1429 C.ar    1  UNL1        0.2132
     41 O         139.3545  139.3414  167.3368 O.2     1  UNL1        0.0415
     42 N         138.3012  138.7743  166.4317 N.pl3   1  UNL1        0.0827
     43 O         137.0457  138.1948  167.0129 O.co2   1  UNL1       -0.5760
@<TRIPOS>UNITY_ATOM_ATTR
42 1
charge 1
43 1
charge -1
@<TRIPOS>BOND
     1    41    42    2
     2    42    43    1
     3    42    32    1
     4    32    33   ar
     5    33    34   ar
     6    34    35   ar
     7    35    30    1
     8    30    29    1
     9    29    28    1
    10    28    27    1
    11    27    26    1
    12    26     1    1
    13     1     2    1
    14     2     3    1
    15     3     4    1
    16     4     7    1
    17     7     9    1
    18     9    10   ar
    19    10    11   ar
    20    11    12   ar
    21    12    13   ar
    22    13    14   ar
    23    14    15   ar
    24    15    16   ar
    25    16    17   ar
    26    17    18    1
    27    18    19    1
    28    19    20   ar
    29    20    21   ar
    30    21    22   ar
    31    22    23    1
    32    22    24   ar
    33    24    25   ar
    34     4     5    1
    35     5     6    1
    36    35    36   ar
    37    36    37   ar
    38    37    38   ar
    39    38    39   ar
    40    39    40   ar
    41    40    32   ar
    42     6     1    1
    43    40    36   ar
    44    17     9   ar
    45    25    19   ar
    46    16    11   ar
    47    30    31    1
    48     7     8    1
@<TRIPOS>MOLECULE
*****
 43 48 0 0 0
SMALL
GASTEIGER

@<TRIPOS>ATOM
      1 N         141.9200  138.1513  162.3244 N.3     1  UNL1       -0.2726
      2 C         141.1241  137.6452  163.4908 C.3     1  UNL1        0.0738
      3 C         141.6528  137.8052  164.8854 C.3     1  UNL1        0.0369
      4 C         142.9773  138.4712  165.1136 C.3     1  UNL1        0.0745
      5 C         143.7731  138.9773  163.9472 C.3     1  UNL1        0.0369
      6 C         143.2445  138.8173  162.5526 C.3     1  UNL1        0.0738
      7 N         143.5060  138.6312  166.5082 N.pl3   1  UNL1       -0.3058
      8 H         144.3110  138.1389  166.7890 H       1  UNL1        0.1495
      9 C         142.8082  139.5414  167.4750 C.ar    1  UNL1        0.1981
     10 N         142.6485  139.3074  168.9480 N.ar    1  UNL1       -0.2138
     11 C         141.8891  140.4668  169.5218 C.ar    1  UNL1        0.0999
     12 C         141.4395  140.7798  170.9182 C.ar    1  UNL1        0.0207
     13 C         140.6804  142.0433  171.1963 C.ar    1  UNL1        0.0016
     14 C         140.3709  142.9938  170.0779 C.ar    1  UNL1        0.0016
     15 C         140.8205  142.6808  168.6815 C.ar    1  UNL1        0.0188
     16 C         141.5796  141.4173  168.4034 C.ar    1  UNL1        0.0801
     17 N         142.1476  140.8454  167.1384 N.ar    1  UNL1       -0.2956
     18 C         142.0688  141.4681  165.7761 C.3     1  UNL1        0.1354
     19 C         140.8268  141.3105  164.9501 C.ar    1  UNL1        0.0006
     20 C         140.8848  141.5048  163.4639 C.ar    1  UNL1       -0.0001
     21 C         139.6427  141.3472  162.6378 C.ar    1  UNL1        0.0294
     22 C         138.3426  140.9953  163.2980 C.ar    1  UNL1        0.1401
     23 F         137.1004  140.8377  162.4719 F       1  UNL1       -0.2042
     24 C         138.2846  140.8010  164.7842 C.ar    1  UNL1        0.0294
     25 C         139.5267  140.9586  165.6103 C.ar    1  UNL1       -0.0001
     26 C         141.3912  137.9913  160.9299 C.3     1  UNL1        0.0722
     27 C         141.2203  139.1940  160.0499 C.3     1  UNL1        0.0191
     28 C         142.0851  139.3644  158.8362 C.3     1  UNL1        0.0226
     29 C         143.2809  140.2686  158.8883 C.3     1  UNL1        0.0871
     30 N         143.1461  141.7129  158.5065 N.pl3   1  UNL1       -0.3313
     31 H         143.5969  142.0530  157.7001 H       1  UNL1        0.1469
     32 C         140.6813  144.4912  161.0474 C.ar    1  UNL1        0.3122
     33 C         140.0551  143.7896  159.8788 C.ar    1  UNL1        0.0784
     34 C         140.8767  142.8636  159.0319 C.ar    1  UNL1        0.0223
     35 C         142.3246  142.6390  159.3535 C.ar    1  UNL1        0.0678
     36 C         142.9507  143.3406  160.5221 C.ar    1  UNL1        0.1622
     37 N         144.3435  143.3164  161.0787 N.ar    1  UNL1       -0.0468
     38 O         144.3826  144.2276  162.2696 O.2     1  UNL1       -0.2413
     39 N         143.0141  144.8149  162.4491 N.ar    1  UNL1       -0.0419
     40 C         142.1291  144.2667  161.3691 C.ar    1  UNL1        0.2132
     41 O         139.1998  146.6134  161.2746 O.2     1  UNL1        0.0415
     42 N         139.8597  145.4173  161.8943 N.pl3   1  UNL1        0.0827
     43 O         139.6980  145.1474  163.3609 O.co2   1  UNL1       -0.5760
@<TRIPOS>UNITY_ATOM_ATTR
42 1
charge 1
43 1
charge -1
@<TRIPOS>BOND
     1    41    42    2
     2    42    43    1
     3    42    32    1
     4    32    33   ar
     5    33    34   ar
     6    34    35   ar
     7    35    30    1
     8    30    29    1
     9    29    28    1
    10    28    27    1
    11    27    26    1
    12    26     1    1
    13     1     2    1
    14     2     3    1
    15     3     4    1
    16     4     7    1
    17     7     9    1
    18     9    10   ar
    19    10    11   ar
    20    11    12   ar
    21    12    13   ar
    22    13    14   ar
    23    14    15   ar
    24    15    16   ar
    25    16    17   ar
    26    17    18    1
    27    18    19    1
    28    19    20   ar
    29    20    21   ar
    30    21    22   ar
    31    22    23    1
    32    22    24   ar
    33    24    25   ar
    34     4     5    1
    35     5     6    1
    36    35    36   ar
    37    36    37   ar
    38    37    38   ar
    39    38    39   ar
    40    39    40   ar
    41    40    32   ar
    42     6     1    1
    43    40    36   ar
    44    17     9   ar
    45    25    19   ar
    46    16    11   ar
    47    30    31    1
    48     7     8    1
@<TRIPOS>MOLECULE
*****
 43 48 0 0 0
SMALL
GASTEIGER

@<TRIPOS>ATOM
      1 N         141.5436  139.7174  161.1386 N.3     1  UNL1       -0.2726
      2 C         142.9460  139.2527  161.3982 C.3     1  UNL1        0.0738
      3 C         143.4508  139.1419  162.8064 C.3     1  UNL1        0.0369
      4 C         142.5531  139.4958  163.9549 C.3     1  UNL1        0.0745
      5 C         141.1508  139.9604  163.6952 C.3     1  UNL1        0.0369
      6 C         140.6460  140.0712  162.2871 C.3     1  UNL1        0.0738
      7 N         143.0578  139.3850  165.3631 N.pl3   1  UNL1       -0.3058
      8 H         143.8727  138.8668  165.5547 H       1  UNL1        0.1495
      9 C         142.3208  140.0637  166.4794 C.ar    1  UNL1        0.1981
     10 N         141.1802  139.4850  167.2630 N.ar    1  UNL1       -0.2138
     11 C         140.7495  140.5040  168.2760 C.ar    1  UNL1        0.0999
     12 C         139.6740  140.4875  169.3215 C.ar    1  UNL1        0.0207
     13 C         139.4730  141.6796  170.2095 C.ar    1  UNL1        0.0016
     14 C         140.3474  142.8881  170.0520 C.ar    1  UNL1        0.0016
     15 C         141.4230  142.9046  169.0065 C.ar    1  UNL1        0.0188
     16 C         141.6240  141.7125  168.1185 C.ar    1  UNL1        0.0801
     17 N         142.5951  141.4404  167.0081 N.ar    1  UNL1       -0.2956
     18 C         143.6545  142.3800  166.5134 C.3     1  UNL1        0.1354
     19 C         143.8931  142.5328  165.0404 C.ar    1  UNL1        0.0006
     20 C         142.8397  143.1518  164.1703 C.ar    1  UNL1       -0.0001
     21 C         143.0782  143.3047  162.6973 C.ar    1  UNL1        0.0294
     22 C         144.3702  142.8385  162.0945 C.ar    1  UNL1        0.1401
     23 F         144.6088  142.9913  160.6214 F       1  UNL1       -0.2042
     24 C         145.4236  142.2194  162.9646 C.ar    1  UNL1        0.0294
     25 C         145.1850  142.0666  164.4376 C.ar    1  UNL1       -0.0001
     26 C         141.0389  139.8281  159.7304 C.3     1  UNL1        0.0722
     27 C         141.4561  140.9861  158.8731 C.3     1  UNL1        0.0191
     28 C         141.5273  142.3654  159.4583 C.3     1  UNL1        0.0226
     29 C         140.8380  143.5076  158.7726 C.3     1  UNL1        0.0871
     30 N         139.6067  144.1132  159.3786 N.pl3   1  UNL1       -0.3313
     31 H         138.8911  144.4589  158.7976 H       1  UNL1        0.1469
     32 C         139.1839  144.3496  163.8525 C.ar    1  UNL1        0.3122
     33 C         140.0312  145.3511  163.1252 C.ar    1  UNL1        0.0784
     34 C         140.1721  145.2723  161.6340 C.ar    1  UNL1        0.0223
     35 C         139.4657  144.1919  160.8699 C.ar    1  UNL1        0.0678
     36 C         138.6184  143.1903  161.5972 C.ar    1  UNL1        0.1622
     37 N         137.8089  142.0228  161.1161 N.ar    1  UNL1       -0.0468
     38 O         137.1676  141.3801  162.3101 O.2     1  UNL1       -0.2413
     39 N         137.5808  142.1503  163.5291 N.ar    1  UNL1       -0.0419
     40 C         138.4775  143.2692  163.0885 C.ar    1  UNL1        0.2132
     41 O         138.2055  145.5085  165.9620 O.2     1  UNL1        0.0415
     42 N         139.0430  144.4284  165.3438 N.pl3   1  UNL1        0.0827
     43 O         139.7395  143.4272  166.2169 O.co2   1  UNL1       -0.5760
@<TRIPOS>UNITY_ATOM_ATTR
42 1
charge 1
43 1
charge -1
@<TRIPOS>BOND
     1    41    42    2
     2    42    43    1
     3    42    32    1
     4    32    33   ar
     5    33    34   ar
     6    34    35   ar
     7    35    30    1
     8    30    29    1
     9    29    28    1
    10    28    27    1
    11    27    26    1
    12    26     1    1
    13     1     2    1
    14     2     3    1
    15     3     4    1
    16     4     7    1
    17     7     9    1
    18     9    10   ar
    19    10    11   ar
    20    11    12   ar
    21    12    13   ar
    22    13    14   ar
    23    14    15   ar
    24    15    16   ar
    25    16    17   ar
    26    17    18    1
    27    18    19    1
    28    19    20   ar
    29    20    21   ar
    30    21    22   ar
    31    22    23    1
    32    22    24   ar
    33    24    25   ar
    34     4     5    1
    35     5     6    1
    36    35    36   ar
    37    36    37   ar
    38    37    38   ar
    39    38    39   ar
    40    39    40   ar
    41    40    32   ar
    42     6     1    1
    43    40    36   ar
    44    17     9   ar
    45    25    19   ar
    46    16    11   ar
    47    30    31    1
    48     7     8    1
