@<TRIPOS>MOLECULE
*****
 31 34 0 0 0
SMALL
GASTEIGER

@<TRIPOS>ATOM
      1 C         142.8495  143.8368  161.7227 C.ar    1  UNL1        0.2168
      2 N         144.2390  144.0886  162.2285 N.ar    1  UNL1       -0.1210
      3 N         144.3587  143.4625  163.5863 N.ar    1  UNL1       -0.1393
      4 C         143.0431  142.8237  163.9197 C.ar    1  UNL1        0.1351
      5 S         142.1104  143.0550  162.7679 S.2     1  UNL1       -0.0262
      6 C         140.2433  145.7523  161.2892 C.3     1  UNL1        0.0520
      7 C         141.0984  145.1681  160.2041 C.ar    1  UNL1        0.0615
      8 C         140.9056  145.3618  158.7292 C.ar    1  UNL1        0.0228
      9 C         141.9844  144.6010  158.0169 C.ar    1  UNL1        0.0789
     10 N         142.8439  143.9372  159.0516 N.ar    1  UNL1       -0.1683
     11 N         142.2963  144.2876  160.4033 N.ar    1  UNL1       -0.2100
     12 C         142.0448  144.6110  156.5181 C.3     1  UNL1        0.0647
     13 C         141.0263  145.3818  155.7317 C.3     1  UNL1        0.0788
     14 N         139.9474  146.1426  156.4440 N.3     1  UNL1       -0.2682
     15 C         139.8871  146.1326  157.9427 C.3     1  UNL1        0.1016
     16 C         138.9289  146.9134  155.6575 C.3     1  UNL1        0.0783
     17 C         139.1583  148.3638  155.3514 C.3     1  UNL1        0.0590
     18 C         138.4937  149.4202  156.1835 C.2     1  UNL1        0.0517
     19 O         138.2443  149.1788  157.6428 O.co2   1  UNL1       -0.5491
     20 O         138.0785  150.7179  155.5563 O.co2   1  UNL1       -0.5491
     21 C         142.7173  142.0835  165.1830 C.ar    1  UNL1        0.0267
     22 C         141.8446  140.8644  165.1343 C.ar    1  UNL1        0.0052
     23 C         141.5189  140.1243  166.3976 C.ar    1  UNL1        0.0378
     24 C         142.0659  140.6032  167.7096 C.ar    1  UNL1        0.1488
     25 C         142.9385  141.8221  167.7584 C.ar    1  UNL1        0.0916
     26 CL        143.4855  142.3011  169.0706 Cl      1  UNL1       -0.0791
     27 C         143.2642  142.5623  166.4951 C.ar    1  UNL1        0.0165
     28 O         141.7401  139.8630  168.9731 O.3     1  UNL1       -0.4783
     29 C         140.6258  140.3409  169.8562 C.3     1  UNL1        0.1662
     30 C         140.9283  140.8620  171.2299 C.3     1  UNL1        0.0472
     31 C         139.2089  140.2977  169.3657 C.3     1  UNL1        0.0472
@<TRIPOS>UNITY_ATOM_ATTR
19 1
charge -1
@<TRIPOS>BOND
     1     6     7    1
     2     7     8   ar
     3     8     9   ar
     4     9    10   ar
     5    10    11   ar
     6    11     1    1
     7     1     2   ar
     8     2     3   ar
     9     3     4   ar
    10     4    21    1
    11    21    22   ar
    12    22    23   ar
    13    23    24   ar
    14    24    28    1
    15    28    29    1
    16    29    30    1
    17    29    31    1
    18    24    25   ar
    19    25    26    1
    20    25    27   ar
    21     4     5   ar
    22     9    12    1
    23    12    13    1
    24    13    14    1
    25    14    16    1
    26    16    17    1
    27    17    18    1
    28    18    19   ar
    29    18    20   ar
    30    14    15    1
    31    11     7   ar
    32     5     1   ar
    33    15     8    1
    34    27    21   ar
@<TRIPOS>MOLECULE
*****
 31 34 0 0 0
SMALL
GASTEIGER

@<TRIPOS>ATOM
      1 C         139.2206  139.5111  160.6375 C.ar    1  UNL1        0.2168
      2 N         138.2612  140.1542  159.6805 N.ar    1  UNL1       -0.1210
      3 N         138.5358  139.6071  158.3110 N.ar    1  UNL1       -0.1393
      4 C         139.6648  138.6258  158.4218 C.ar    1  UNL1        0.1351
      5 S         140.0880  138.5665  159.8596 S.2     1  UNL1       -0.0262
      6 C         140.7392  142.0188  162.0710 C.3     1  UNL1        0.0520
      7 C         139.9967  140.9202  162.7723 C.ar    1  UNL1        0.0615
      8 C         139.8220  140.7814  164.2556 C.ar    1  UNL1        0.0228
      9 C         139.0159  139.5430  164.5135 C.ar    1  UNL1        0.0789
     10 N         138.6925  138.9164  163.1895 N.ar    1  UNL1       -0.1683
     11 N         139.2987  139.7675  162.1134 N.ar    1  UNL1       -0.2100
     12 C         138.6805  139.1458  165.9205 C.3     1  UNL1        0.0647
     13 C         139.1512  139.9871  167.0696 C.3     1  UNL1        0.0788
     14 N         139.9573  141.2256  166.8118 N.3     1  UNL1       -0.2682
     15 C         140.2927  141.6227  165.4047 C.3     1  UNL1        0.1016
     16 C         140.4280  142.0669  167.9610 C.3     1  UNL1        0.0783
     17 C         140.0946  141.6685  169.3681 C.3     1  UNL1        0.0590
     18 C         140.2279  142.6650  170.4814 C.2     1  UNL1        0.0517
     19 O         140.4720  142.1940  171.8844 O.co2   1  UNL1       -0.5491
     20 O         140.1170  144.1326  170.1915 O.co2   1  UNL1       -0.5491
     21 C         140.2653  137.8415  157.2929 C.ar    1  UNL1        0.0267
     22 C         139.3997  137.3746  156.1603 C.ar    1  UNL1        0.0052
     23 C         140.0002  136.5903  155.0315 C.ar    1  UNL1        0.0378
     24 C         141.4662  136.2730  155.0353 C.ar    1  UNL1        0.1488
     25 C         142.3318  136.7398  156.1678 C.ar    1  UNL1        0.0916
     26 CL        143.7979  136.4225  156.1716 Cl      1  UNL1       -0.0791
     27 C         141.7313  137.5241  157.2967 C.ar    1  UNL1        0.0165
     28 O         142.0668  135.4886  153.9064 O.3     1  UNL1       -0.4783
     29 C         141.8764  134.0022  153.8413 C.3     1  UNL1        0.1662
     30 C         141.7444  133.2069  155.1062 C.3     1  UNL1        0.0472
     31 C         141.8181  133.3110  152.5113 C.3     1  UNL1        0.0472
@<TRIPOS>UNITY_ATOM_ATTR
19 1
charge -1
@<TRIPOS>BOND
     1     6     7    1
     2     7     8   ar
     3     8     9   ar
     4     9    10   ar
     5    10    11   ar
     6    11     1    1
     7     1     2   ar
     8     2     3   ar
     9     3     4   ar
    10     4    21    1
    11    21    22   ar
    12    22    23   ar
    13    23    24   ar
    14    24    28    1
    15    28    29    1
    16    29    30    1
    17    29    31    1
    18    24    25   ar
    19    25    26    1
    20    25    27   ar
    21     4     5   ar
    22     9    12    1
    23    12    13    1
    24    13    14    1
    25    14    16    1
    26    16    17    1
    27    17    18    1
    28    18    19   ar
    29    18    20   ar
    30    14    15    1
    31    11     7   ar
    32     5     1   ar
    33    15     8    1
    34    27    21   ar
@<TRIPOS>MOLECULE
*****
 31 34 0 0 0
SMALL
GASTEIGER

@<TRIPOS>ATOM
      1 C         139.9281  139.7574  160.7095 C.ar    1  UNL1        0.2168
      2 N         139.6727  141.2314  160.8195 N.ar    1  UNL1       -0.1210
      3 N         139.4915  141.5635  162.2710 N.ar    1  UNL1       -0.1393
      4 C         139.6348  140.2947  163.0581 C.ar    1  UNL1        0.1351
      5 S         139.9046  139.1785  162.0930 S.2     1  UNL1       -0.0262
      6 C         142.7229  138.3228  159.8261 C.3     1  UNL1        0.0520
      7 C         141.4499  138.3367  159.0330 C.ar    1  UNL1        0.0615
      8 C         141.2380  137.6935  157.6945 C.ar    1  UNL1        0.0228
      9 C         139.8223  137.9554  157.2733 C.ar    1  UNL1        0.0789
     10 N         139.1594  138.7604  158.3515 N.ar    1  UNL1       -0.1683
     11 N         140.1652  138.9961  159.4390 N.ar    1  UNL1       -0.2100
     12 C         139.3199  137.4270  155.9625 C.3     1  UNL1        0.0647
     13 C         140.2331  136.6367  155.0729 C.3     1  UNL1        0.0788
     14 N         141.6487  136.3748  155.4941 N.3     1  UNL1       -0.2682
     15 C         142.1512  136.9032  156.8049 C.3     1  UNL1        0.1016
     16 C         142.5619  135.5845  154.6043 C.3     1  UNL1        0.0783
     17 C         143.1789  134.3117  155.1037 C.3     1  UNL1        0.0590
     18 C         142.3156  133.2515  155.7210 C.2     1  UNL1        0.0517
     19 O         141.1319  132.7172  154.9704 O.co2   1  UNL1       -0.5491
     20 O         142.6361  132.7257  157.0887 O.co2   1  UNL1       -0.5491
     21 C         139.5272  140.1648  164.5486 C.ar    1  UNL1        0.0267
     22 C         140.4741  140.9157  165.4372 C.ar    1  UNL1        0.0052
     23 C         140.3664  140.7858  166.9276 C.ar    1  UNL1        0.0378
     24 C         139.3119  139.9050  167.5295 C.ar    1  UNL1        0.1488
     25 C         138.3651  139.1542  166.6409 C.ar    1  UNL1        0.0916
     26 CL        137.3105  138.2733  167.2428 Cl      1  UNL1       -0.0791
     27 C         138.4727  139.2840  165.1505 C.ar    1  UNL1        0.0165
     28 O         139.2043  139.7751  169.0200 O.3     1  UNL1       -0.4783
     29 C         140.1400  140.5395  169.9090 C.3     1  UNL1        0.1662
     30 C         141.3984  139.8924  170.4064 C.3     1  UNL1        0.0472
     31 C         139.8171  141.9510  170.3006 C.3     1  UNL1        0.0472
@<TRIPOS>UNITY_ATOM_ATTR
19 1
charge -1
@<TRIPOS>BOND
     1     6     7    1
     2     7     8   ar
     3     8     9   ar
     4     9    10   ar
     5    10    11   ar
     6    11     1    1
     7     1     2   ar
     8     2     3   ar
     9     3     4   ar
    10     4    21    1
    11    21    22   ar
    12    22    23   ar
    13    23    24   ar
    14    24    28    1
    15    28    29    1
    16    29    30    1
    17    29    31    1
    18    24    25   ar
    19    25    26    1
    20    25    27   ar
    21     4     5   ar
    22     9    12    1
    23    12    13    1
    24    13    14    1
    25    14    16    1
    26    16    17    1
    27    17    18    1
    28    18    19   ar
    29    18    20   ar
    30    14    15    1
    31    11     7   ar
    32     5     1   ar
    33    15     8    1
    34    27    21   ar
@<TRIPOS>MOLECULE
*****
 31 34 0 0 0
SMALL
GASTEIGER

@<TRIPOS>ATOM
      1 C         143.4012  142.4039  161.6419 C.ar    1  UNL1        0.2168
      2 N         142.5482  143.4052  160.9209 N.ar    1  UNL1       -0.1210
      3 N         143.0952  143.5667  159.5336 N.ar    1  UNL1       -0.1393
      4 C         144.2863  142.6652  159.3971 C.ar    1  UNL1        0.1351
      5 S         144.4753  141.9465  160.7001 S.2     1  UNL1       -0.0262
      6 C         143.6426  144.2596  164.3154 C.3     1  UNL1        0.0520
      7 C         143.3240  142.7942  164.2852 C.ar    1  UNL1        0.0615
      8 C         143.0604  141.9245  165.4785 C.ar    1  UNL1        0.0228
      9 C         142.7864  140.5339  164.9872 C.ar    1  UNL1        0.0789
     10 N         142.8808  140.5443  163.4902 N.ar    1  UNL1       -0.1683
     11 N         143.2130  141.9412  163.0563 N.ar    1  UNL1       -0.2100
     12 C         142.4865  139.4380  165.9664 C.3     1  UNL1        0.0647
     13 C         142.4605  139.7325  167.4369 C.3     1  UNL1        0.0788
     14 N         142.7344  141.1231  167.9283 N.3     1  UNL1       -0.2682
     15 C         143.0344  142.2190  166.9491 C.3     1  UNL1        0.1016
     16 C         142.7084  141.4176  169.3989 C.3     1  UNL1        0.0783
     17 C         142.2727  142.7678  169.8858 C.3     1  UNL1        0.0590
     18 C         140.9958  142.9097  170.6601 C.2     1  UNL1        0.0517
     19 O         140.7109  141.9913  171.8114 O.co2   1  UNL1       -0.5491
     20 O         140.0040  143.9699  170.2833 O.co2   1  UNL1       -0.5491
     21 C         145.1386  142.5096  158.1727 C.ar    1  UNL1        0.0267
     22 C         146.5769  142.9346  158.2010 C.ar    1  UNL1        0.0052
     23 C         147.4291  142.7790  156.9766 C.ar    1  UNL1        0.0378
     24 C         146.8432  142.1984  155.7238 C.ar    1  UNL1        0.1488
     25 C         145.4051  141.7733  155.6954 C.ar    1  UNL1        0.0916
     26 CL        144.8190  141.1926  154.4425 Cl      1  UNL1       -0.0791
     27 C         144.5527  141.9289  156.9199 C.ar    1  UNL1        0.0165
     28 O         147.6956  142.0427  154.4992 O.3     1  UNL1       -0.4783
     29 C         148.1071  143.2523  153.7133 C.3     1  UNL1        0.1662
     30 C         147.1921  144.4376  153.6268 C.3     1  UNL1        0.0472
     31 C         149.4338  143.2764  153.0138 C.3     1  UNL1        0.0472
@<TRIPOS>UNITY_ATOM_ATTR
19 1
charge -1
@<TRIPOS>BOND
     1     6     7    1
     2     7     8   ar
     3     8     9   ar
     4     9    10   ar
     5    10    11   ar
     6    11     1    1
     7     1     2   ar
     8     2     3   ar
     9     3     4   ar
    10     4    21    1
    11    21    22   ar
    12    22    23   ar
    13    23    24   ar
    14    24    28    1
    15    28    29    1
    16    29    30    1
    17    29    31    1
    18    24    25   ar
    19    25    26    1
    20    25    27   ar
    21     4     5   ar
    22     9    12    1
    23    12    13    1
    24    13    14    1
    25    14    16    1
    26    16    17    1
    27    17    18    1
    28    18    19   ar
    29    18    20   ar
    30    14    15    1
    31    11     7   ar
    32     5     1   ar
    33    15     8    1
    34    27    21   ar
@<TRIPOS>MOLECULE
*****
 31 34 0 0 0
SMALL
GASTEIGER

@<TRIPOS>ATOM
      1 C         143.0254  139.3734  161.0829 C.ar    1  UNL1        0.2168
      2 N         143.9480  140.0837  160.1372 N.ar    1  UNL1       -0.1210
      3 N         143.7549  139.4948  158.7712 N.ar    1  UNL1       -0.1393
      4 C         142.7129  138.4206  158.8726 C.ar    1  UNL1        0.1351
      5 S         142.2621  138.3456  160.3013 S.2     1  UNL1       -0.0262
      6 C         142.3424  142.2578  162.4479 C.3     1  UNL1        0.0520
      7 C         142.5760  140.9693  163.1795 C.ar    1  UNL1        0.0615
      8 C         142.5366  140.7805  164.6671 C.ar    1  UNL1        0.0228
      9 C         142.8261  139.3380  164.9590 C.ar    1  UNL1        0.0789
     10 N         143.0445  138.6353  163.6519 N.ar    1  UNL1       -0.1683
     11 N         142.8899  139.6435  162.5521 N.ar    1  UNL1       -0.2100
     12 C         142.8536  138.8506  166.3774 C.3     1  UNL1        0.0647
     13 C         142.5914  139.8058  167.5038 C.3     1  UNL1        0.0788
     14 N         142.3019  141.2484  167.2118 N.3     1  UNL1       -0.2682
     15 C         142.2744  141.7357  165.7935 C.3     1  UNL1        0.1016
     16 C         142.0397  142.2036  168.3383 C.3     1  UNL1        0.0783
     17 C         140.6632  142.7638  168.5417 C.3     1  UNL1        0.0590
     18 C         140.2359  143.2282  169.9025 C.2     1  UNL1        0.0517
     19 O         139.9076  142.2252  170.9684 O.co2   1  UNL1       -0.5491
     20 O         140.1371  144.6956  170.1974 O.co2   1  UNL1       -0.5491
     21 C         142.2101  137.5706  157.7436 C.ar    1  UNL1        0.0267
     22 C         143.0960  136.5190  157.1442 C.ar    1  UNL1        0.0052
     23 C         142.5931  135.6691  156.0153 C.ar    1  UNL1        0.0378
     24 C         141.2043  135.8707  155.4856 C.ar    1  UNL1        0.1488
     25 C         140.3184  136.9223  156.0849 C.ar    1  UNL1        0.0916
     26 CL        138.9295  137.1240  155.5552 Cl      1  UNL1       -0.0791
     27 C         140.8213  137.7723  157.2139 C.ar    1  UNL1        0.0165
     28 O         140.7014  135.0208  154.3565 O.3     1  UNL1       -0.4783
     29 C         141.3097  133.6731  154.1037 C.3     1  UNL1        0.1662
     30 C         142.0408  133.4090  152.8208 C.3     1  UNL1        0.0472
     31 C         141.1870  132.5897  155.1337 C.3     1  UNL1        0.0472
@<TRIPOS>UNITY_ATOM_ATTR
19 1
charge -1
@<TRIPOS>BOND
     1     6     7    1
     2     7     8   ar
     3     8     9   ar
     4     9    10   ar
     5    10    11   ar
     6    11     1    1
     7     1     2   ar
     8     2     3   ar
     9     3     4   ar
    10     4    21    1
    11    21    22   ar
    12    22    23   ar
    13    23    24   ar
    14    24    28    1
    15    28    29    1
    16    29    30    1
    17    29    31    1
    18    24    25   ar
    19    25    26    1
    20    25    27   ar
    21     4     5   ar
    22     9    12    1
    23    12    13    1
    24    13    14    1
    25    14    16    1
    26    16    17    1
    27    17    18    1
    28    18    19   ar
    29    18    20   ar
    30    14    15    1
    31    11     7   ar
    32     5     1   ar
    33    15     8    1
    34    27    21   ar
@<TRIPOS>MOLECULE
*****
 31 34 0 0 0
SMALL
GASTEIGER

@<TRIPOS>ATOM
      1 C         142.7388  142.6784  161.9803 C.ar    1  UNL1        0.2168
      2 N         142.9739  143.9074  161.1531 N.ar    1  UNL1       -0.1210
      3 N         143.2450  143.4724  159.7434 N.ar    1  UNL1       -0.1393
      4 C         143.1774  141.9746  159.6993 C.ar    1  UNL1        0.1351
      5 S         142.8645  141.4839  161.0819 S.2     1  UNL1       -0.0262
      6 C         144.8640  142.0359  164.3720 C.3     1  UNL1        0.0520
      7 C         143.4086  142.3538  164.5476 C.ar    1  UNL1        0.0615
      8 C         142.6746  142.4322  165.8534 C.ar    1  UNL1        0.0228
      9 C         141.2441  142.7759  165.5611 C.ar    1  UNL1        0.0789
     10 N         141.0940  142.9100  164.0747 N.ar    1  UNL1       -0.1683
     11 N         142.4318  142.6491  163.4483 N.ar    1  UNL1       -0.2100
     12 C         140.2630  142.9224  166.6862 C.3     1  UNL1        0.0647
     13 C         140.7124  142.7251  168.1036 C.3     1  UNL1        0.0788
     14 N         142.1429  142.3814  168.3959 N.3     1  UNL1       -0.2682
     15 C         143.1240  142.2349  167.2708 C.3     1  UNL1        0.1016
     16 C         142.5923  142.1842  169.8134 C.3     1  UNL1        0.0783
     17 C         142.1258  140.9877  170.5885 C.3     1  UNL1        0.0590
     18 C         140.7778  140.9993  171.2466 C.2     1  UNL1        0.0517
     19 O         139.8298  139.8564  171.0344 O.co2   1  UNL1       -0.5491
     20 O         140.3779  142.1538  172.1167 O.co2   1  UNL1       -0.5491
     21 C         143.3860  141.1178  158.4859 C.ar    1  UNL1        0.0267
     22 C         142.3825  140.0603  158.1328 C.ar    1  UNL1        0.0052
     23 C         142.5912  139.2036  156.9194 C.ar    1  UNL1        0.0378
     24 C         143.8033  139.4045  156.0590 C.ar    1  UNL1        0.1488
     25 C         144.8067  140.4619  156.4120 C.ar    1  UNL1        0.0916
     26 CL        146.0190  140.6628  155.5515 Cl      1  UNL1       -0.0791
     27 C         144.5981  141.3186  157.6254 C.ar    1  UNL1        0.0165
     28 O         144.0120  138.5477  154.8455 O.3     1  UNL1       -0.4783
     29 C         143.4419  137.1610  154.7994 C.3     1  UNL1        0.1662
     30 C         142.2433  136.8708  153.9455 C.3     1  UNL1        0.0472
     31 C         144.0704  136.0645  155.6072 C.3     1  UNL1        0.0472
@<TRIPOS>UNITY_ATOM_ATTR
19 1
charge -1
@<TRIPOS>BOND
     1     6     7    1
     2     7     8   ar
     3     8     9   ar
     4     9    10   ar
     5    10    11   ar
     6    11     1    1
     7     1     2   ar
     8     2     3   ar
     9     3     4   ar
    10     4    21    1
    11    21    22   ar
    12    22    23   ar
    13    23    24   ar
    14    24    28    1
    15    28    29    1
    16    29    30    1
    17    29    31    1
    18    24    25   ar
    19    25    26    1
    20    25    27   ar
    21     4     5   ar
    22     9    12    1
    23    12    13    1
    24    13    14    1
    25    14    16    1
    26    16    17    1
    27    17    18    1
    28    18    19   ar
    29    18    20   ar
    30    14    15    1
    31    11     7   ar
    32     5     1   ar
    33    15     8    1
    34    27    21   ar
@<TRIPOS>MOLECULE
*****
 31 34 0 0 0
SMALL
GASTEIGER

@<TRIPOS>ATOM
      1 C         140.2046  143.2148  161.9789 C.ar    1  UNL1        0.2168
      2 N         139.9711  144.5394  161.3150 N.ar    1  UNL1       -0.1210
      3 N         139.5344  144.2800  159.9036 N.ar    1  UNL1       -0.1393
      4 C         139.4980  142.7950  159.6952 C.ar    1  UNL1        0.1351
      5 S         139.9122  142.1367  160.9778 S.2     1  UNL1       -0.0262
      6 C         138.3584  143.5700  164.6463 C.3     1  UNL1        0.0520
      7 C         139.8034  143.1684  164.6212 C.ar    1  UNL1        0.0615
      8 C         140.6535  142.8595  165.8179 C.ar    1  UNL1        0.0228
      9 C         142.0275  142.5053  165.3314 C.ar    1  UNL1        0.0789
     10 N         142.0266  142.5953  163.8341 N.ar    1  UNL1       -0.1683
     11 N         140.6520  143.0051  163.3952 N.ar    1  UNL1       -0.2100
     12 C         143.1019  142.1466  166.3147 C.3     1  UNL1        0.0647
     13 C         142.8023  142.1421  167.7844 C.3     1  UNL1        0.0788
     14 N         141.4283  142.4963  168.2709 N.3     1  UNL1       -0.2682
     15 C         140.3539  142.8550  167.2876 C.3     1  UNL1        0.1016
     16 C         141.1288  142.4917  169.7407 C.3     1  UNL1        0.0783
     17 C         139.8161  141.9621  170.2370 C.3     1  UNL1        0.0590
     18 C         139.5071  140.4985  170.1246 C.2     1  UNL1        0.0517
     19 O         140.6002  139.5240  169.8000 O.co2   1  UNL1       -0.5491
     20 O         138.1051  140.0095  170.3369 O.co2   1  UNL1       -0.5491
     21 C         139.1147  142.0918  158.4270 C.ar    1  UNL1        0.0267
     22 C         138.3683  142.8305  157.3558 C.ar    1  UNL1        0.0052
     23 C         137.9850  142.1272  156.0876 C.ar    1  UNL1        0.0378
     24 C         138.3481  140.6853  155.8905 C.ar    1  UNL1        0.1488
     25 C         139.0943  139.9466  156.9615 C.ar    1  UNL1        0.0916
     26 CL        139.4574  138.5044  156.7644 Cl      1  UNL1       -0.0791
     27 C         139.4777  140.6498  158.2298 C.ar    1  UNL1        0.0165
     28 O         137.9647  139.9819  154.6222 O.3     1  UNL1       -0.4783
     29 C         136.6810  139.2092  154.5517 C.3     1  UNL1        0.1662
     30 C         136.6805  137.8016  154.0333 C.3     1  UNL1        0.0472
     31 C         135.3979  139.8440  154.9995 C.3     1  UNL1        0.0472
@<TRIPOS>UNITY_ATOM_ATTR
19 1
charge -1
@<TRIPOS>BOND
     1     6     7    1
     2     7     8   ar
     3     8     9   ar
     4     9    10   ar
     5    10    11   ar
     6    11     1    1
     7     1     2   ar
     8     2     3   ar
     9     3     4   ar
    10     4    21    1
    11    21    22   ar
    12    22    23   ar
    13    23    24   ar
    14    24    28    1
    15    28    29    1
    16    29    30    1
    17    29    31    1
    18    24    25   ar
    19    25    26    1
    20    25    27   ar
    21     4     5   ar
    22     9    12    1
    23    12    13    1
    24    13    14    1
    25    14    16    1
    26    16    17    1
    27    17    18    1
    28    18    19   ar
    29    18    20   ar
    30    14    15    1
    31    11     7   ar
    32     5     1   ar
    33    15     8    1
    34    27    21   ar
@<TRIPOS>MOLECULE
*****
 31 34 0 0 0
SMALL
GASTEIGER

@<TRIPOS>ATOM
      1 C         142.5164  139.0471  161.5048 C.ar    1  UNL1        0.2168
      2 N         143.7133  139.6116  160.7986 N.ar    1  UNL1       -0.1210
      3 N         143.6830  139.1306  159.3781 N.ar    1  UNL1       -0.1393
      4 C         142.4674  138.2687  159.2064 C.ar    1  UNL1        0.1351
      5 S         141.7464  138.2171  160.5208 S.2     1  UNL1       -0.0262
      6 C         144.6113  139.3233  163.9918 C.3     1  UNL1        0.0520
      7 C         143.1162  139.3998  164.0857 C.ar    1  UNL1        0.0615
      8 C         142.3215  139.6167  165.3393 C.ar    1  UNL1        0.0228
      9 C         140.8674  139.6238  164.9709 C.ar    1  UNL1        0.0789
     10 N         140.7635  139.4113  163.4897 N.ar    1  UNL1       -0.1683
     11 N         142.1533  139.2728  162.9426 N.ar    1  UNL1       -0.2100
     12 C         139.8259  139.8228  166.0319 C.3     1  UNL1        0.0647
     13 C         140.2385  140.0148  167.4611 C.3     1  UNL1        0.0788
     14 N         141.6925  140.0078  167.8295 N.3     1  UNL1       -0.2682
     15 C         142.7340  139.8087  166.7686 C.3     1  UNL1        0.1016
     16 C         142.1051  140.1998  169.2589 C.3     1  UNL1        0.0783
     17 C         141.1215  139.9497  170.3634 C.3     1  UNL1        0.0590
     18 C         140.3041  141.0822  170.9105 C.2     1  UNL1        0.0517
     19 O         140.8757  141.9758  171.9710 O.co2   1  UNL1       -0.5491
     20 O         138.9151  141.3210  170.3971 O.co2   1  UNL1       -0.5491
     21 C         142.0466  137.5795  157.9424 C.ar    1  UNL1        0.0267
     22 C         140.6868  137.8377  157.3642 C.ar    1  UNL1        0.0052
     23 C         140.2661  137.1484  156.1002 C.ar    1  UNL1        0.0378
     24 C         141.2052  136.2010  155.4143 C.ar    1  UNL1        0.1488
     25 C         142.5649  135.9428  155.9924 C.ar    1  UNL1        0.0916
     26 CL        143.5041  134.9954  155.3064 Cl      1  UNL1       -0.0791
     27 C         142.9857  136.6321  157.2564 C.ar    1  UNL1        0.0165
     28 O         140.7844  135.5117  154.1501 O.3     1  UNL1       -0.4783
     29 C         140.5821  136.3065  152.8941 C.3     1  UNL1        0.1662
     30 C         141.7554  136.9503  152.2169 C.3     1  UNL1        0.0472
     31 C         139.2065  136.4574  152.3155 C.3     1  UNL1        0.0472
@<TRIPOS>UNITY_ATOM_ATTR
19 1
charge -1
@<TRIPOS>BOND
     1     6     7    1
     2     7     8   ar
     3     8     9   ar
     4     9    10   ar
     5    10    11   ar
     6    11     1    1
     7     1     2   ar
     8     2     3   ar
     9     3     4   ar
    10     4    21    1
    11    21    22   ar
    12    22    23   ar
    13    23    24   ar
    14    24    28    1
    15    28    29    1
    16    29    30    1
    17    29    31    1
    18    24    25   ar
    19    25    26    1
    20    25    27   ar
    21     4     5   ar
    22     9    12    1
    23    12    13    1
    24    13    14    1
    25    14    16    1
    26    16    17    1
    27    17    18    1
    28    18    19   ar
    29    18    20   ar
    30    14    15    1
    31    11     7   ar
    32     5     1   ar
    33    15     8    1
    34    27    21   ar
@<TRIPOS>MOLECULE
*****
 31 34 0 0 0
SMALL
GASTEIGER

@<TRIPOS>ATOM
      1 C         138.5758  142.7350  161.9436 C.ar    1  UNL1        0.2168
      2 N         137.7674  143.7956  162.6303 N.ar    1  UNL1       -0.1210
      3 N         137.9742  143.6514  164.1090 N.ar    1  UNL1       -0.1393
      4 C         138.9104  142.5017  164.3361 C.ar    1  UNL1        0.1351
      5 S         139.2823  141.9354  162.9979 S.2     1  UNL1       -0.0262
      6 C         137.7120  140.0170  160.3574 C.3     1  UNL1        0.0520
      7 C         138.2656  141.2638  159.7335 C.ar    1  UNL1        0.0615
      8 C         138.5193  141.4801  158.2710 C.ar    1  UNL1        0.0228
      9 C         139.0731  142.8631  158.0963 C.ar    1  UNL1        0.0789
     10 N         139.1617  143.5015  159.4507 N.ar    1  UNL1       -0.1683
     11 N         138.6626  142.5131  160.4626 N.ar    1  UNL1       -0.2100
     12 C         139.4252  143.3624  156.7263 C.3     1  UNL1        0.0647
     13 C         139.2234  142.4787  155.5312 C.3     1  UNL1        0.0788
     14 N         138.6696  141.0957  155.7060 N.3     1  UNL1       -0.2682
     15 C         138.3175  140.5964  157.0759 C.3     1  UNL1        0.1016
     16 C         138.4678  140.2120  154.5108 C.3     1  UNL1        0.0783
     17 C         139.2708  138.9536  154.3645 C.3     1  UNL1        0.0590
     18 C         138.5960  137.6175  154.4628 C.2     1  UNL1        0.0517
     19 O         138.0762  136.9469  153.2258 O.co2   1  UNL1       -0.5491
     20 O         138.4409  136.9521  155.7981 O.co2   1  UNL1       -0.5491
     21 C         139.3905  142.0054  165.6678 C.ar    1  UNL1        0.0267
     22 C         139.4091  140.5338  165.9575 C.ar    1  UNL1        0.0052
     23 C         139.8892  140.0376  167.2891 C.ar    1  UNL1        0.0378
     24 C         140.3508  141.0130  168.3310 C.ar    1  UNL1        0.1488
     25 C         140.3322  142.4846  168.0413 C.ar    1  UNL1        0.0916
     26 CL        140.7937  143.4601  169.0832 Cl      1  UNL1       -0.0791
     27 C         139.8520  142.9808  166.7097 C.ar    1  UNL1        0.0165
     28 O         140.8309  140.5168  169.6627 O.3     1  UNL1       -0.4783
     29 C         142.2685  140.1294  169.8448 C.3     1  UNL1        0.1662
     30 C         143.3269  141.1894  169.9226 C.3     1  UNL1        0.0472
     31 C         142.6478  138.6819  169.9490 C.3     1  UNL1        0.0472
@<TRIPOS>UNITY_ATOM_ATTR
19 1
charge -1
@<TRIPOS>BOND
     1     6     7    1
     2     7     8   ar
     3     8     9   ar
     4     9    10   ar
     5    10    11   ar
     6    11     1    1
     7     1     2   ar
     8     2     3   ar
     9     3     4   ar
    10     4    21    1
    11    21    22   ar
    12    22    23   ar
    13    23    24   ar
    14    24    28    1
    15    28    29    1
    16    29    30    1
    17    29    31    1
    18    24    25   ar
    19    25    26    1
    20    25    27   ar
    21     4     5   ar
    22     9    12    1
    23    12    13    1
    24    13    14    1
    25    14    16    1
    26    16    17    1
    27    17    18    1
    28    18    19   ar
    29    18    20   ar
    30    14    15    1
    31    11     7   ar
    32     5     1   ar
    33    15     8    1
    34    27    21   ar
