@<TRIPOS>MOLECULE
*****
 33 36 0 0 0
SMALL
GASTEIGER

@<TRIPOS>ATOM
      1 C         141.7568  143.0775  163.4980 C.3     1  UNL1        0.1753
      2 C         141.6231  143.6525  162.1190 C.ar    1  UNL1        0.0089
      3 C         142.5037  143.5705  160.9076 C.ar    1  UNL1       -0.0014
      4 C         142.1015  144.2636  159.6396 C.ar    1  UNL1        0.0100
      5 C         140.8185  145.0387  159.5831 C.ar    1  UNL1        0.0686
      6 C         139.9379  145.1208  160.7946 C.ar    1  UNL1        0.0145
      7 C         140.3401  144.4277  162.0625 C.ar    1  UNL1        0.0523
      8 C         139.6810  144.3317  163.4065 C.2     1  UNL1        0.2496
      9 O         138.3755  144.9599  163.7951 O.2     1  UNL1       -0.2699
     10 N         140.5565  143.4972  164.2937 N.am    1  UNL1       -0.2620
     11 N         142.9116  140.7594  163.7054 N.am    1  UNL1       -0.3059
     12 C         142.8916  142.2313  163.9941 C.2     1  UNL1        0.2448
     13 O         144.0064  142.8567  164.7788 O.2     1  UNL1       -0.2729
     14 H         142.1799  140.3488  163.1903 H       1  UNL1        0.1494
     15 C         143.2505  139.5624  165.4236 C.3     1  UNL1        0.0196
     16 C         144.0464  139.9131  164.2015 C.3     1  UNL1        0.0569
     17 C         144.8422  140.2639  162.9793 C.3     1  UNL1        0.0196
     18 C         145.1811  139.0669  164.6975 C.3     1  UNL1        0.0196
     19 C         140.4163  145.7318  158.3151 C.1     1  UNL1        0.1004
     20 N         140.0141  146.4249  157.0471 N.1     1  UNL1       -0.1908
     21 C         140.2803  143.1445  165.7252 C.3     1  UNL1        0.1212
     22 C         139.6867  141.8102  166.0678 C.ar    1  UNL1       -0.0023
     23 C         138.7606  141.1313  165.1026 C.ar    1  UNL1       -0.0026
     24 C         138.1669  139.7971  165.4452 C.ar    1  UNL1       -0.0003
     25 C         138.4994  139.1417  166.7528 C.ar    1  UNL1       -0.0000
     26 C         139.4255  139.8205  167.7179 C.ar    1  UNL1       -0.0003
     27 C         140.0192  141.1548  167.3754 C.ar    1  UNL1       -0.0024
     28 C         140.9453  141.8336  168.3405 C.ar    1  UNL1       -0.0003
     29 C         142.3998  141.4679  168.3677 C.ar    1  UNL1       -0.0000
     30 C         143.3259  142.1468  169.3328 C.ar    1  UNL1       -0.0000
     31 C         142.7975  143.1914  170.2708 C.ar    1  UNL1       -0.0000
     32 C         141.3431  143.5571  170.2435 C.ar    1  UNL1       -0.0000
     33 C         140.4169  142.8782  169.2784 C.ar    1  UNL1       -0.0000
@<TRIPOS>BOND
     1    15    16    1
     2    16    17    1
     3    16    18    1
     4    16    11    1
     5    11    12   am
     6    12    13    2
     7    12     1    1
     8     1     2    1
     9     2     3   ar
    10     3     4   ar
    11     4     5   ar
    12     5    19    1
    13    19    20    3
    14     5     6   ar
    15     6     7   ar
    16     7     8    1
    17     8     9    2
    18     8    10   am
    19    10    21    1
    20    21    22    1
    21    22    23   ar
    22    23    24   ar
    23    24    25   ar
    24    25    26   ar
    25    26    27   ar
    26    27    28    1
    27    28    29   ar
    28    29    30   ar
    29    30    31   ar
    30    31    32   ar
    31    32    33   ar
    32    10     1    1
    33    27    22   ar
    34    33    28   ar
    35     7     2   ar
    36    11    14    1
@<TRIPOS>MOLECULE
*****
 33 36 0 0 0
SMALL
GASTEIGER

@<TRIPOS>ATOM
      1 C         139.0499  141.6548  164.3115 C.3     1  UNL1        0.1753
      2 C         139.5024  141.8086  165.7333 C.ar    1  UNL1        0.0089
      3 C         140.1092  142.9631  166.4742 C.ar    1  UNL1       -0.0014
      4 C         140.4668  142.8192  167.9238 C.ar    1  UNL1        0.0100
      5 C         140.2176  141.5209  168.6325 C.ar    1  UNL1        0.0686
      6 C         139.6108  140.3664  167.8916 C.ar    1  UNL1        0.0145
      7 C         139.2533  140.5102  166.4420 C.ar    1  UNL1        0.0523
      8 C         138.6468  139.5541  165.4582 C.2     1  UNL1        0.2496
      9 O         138.2377  138.1390  165.7414 O.2     1  UNL1       -0.2699
     10 N         138.5211  140.2614  164.1414 N.am    1  UNL1       -0.2620
     11 N         140.4392  143.2856  162.8416 N.am    1  UNL1       -0.3059
     12 C         139.1148  142.7092  163.2466 C.2     1  UNL1        0.2448
     13 O         137.8556  143.1875  162.5869 O.2     1  UNL1       -0.2729
     14 H         141.2658  142.9717  163.2746 H       1  UNL1        0.1494
     15 C         140.6606  143.2752  160.7319 C.3     1  UNL1        0.0196
     16 C         140.5042  144.3400  161.7767 C.3     1  UNL1        0.0569
     17 C         140.3477  145.4048  162.8216 C.3     1  UNL1        0.0196
     18 C         140.5691  145.3944  160.7119 C.3     1  UNL1        0.0196
     19 C         140.5752  141.3771  170.0822 C.1     1  UNL1        0.1004
     20 N         140.9329  141.2334  171.5318 N.1     1  UNL1       -0.1908
     21 C         137.9643  139.6779  162.8767 C.3     1  UNL1        0.1212
     22 C         138.7224  139.8159  161.5898 C.ar    1  UNL1       -0.0023
     23 C         138.0322  140.3394  160.3652 C.ar    1  UNL1       -0.0026
     24 C         138.7903  140.4774  159.0782 C.ar    1  UNL1       -0.0003
     25 C         140.2385  140.0919  159.0158 C.ar    1  UNL1       -0.0000
     26 C         140.9287  139.5684  160.2404 C.ar    1  UNL1       -0.0003
     27 C         140.1706  139.4304  161.5274 C.ar    1  UNL1       -0.0024
     28 C         140.8608  138.9069  162.7519 C.ar    1  UNL1       -0.0003
     29 C         141.8013  139.7894  163.5179 C.ar    1  UNL1       -0.0000
     30 C         142.4915  139.2659  164.7424 C.ar    1  UNL1       -0.0000
     31 C         142.2412  137.8598  165.2011 C.ar    1  UNL1       -0.0000
     32 C         141.3008  136.9773  164.4352 C.ar    1  UNL1       -0.0000
     33 C         140.6106  137.5009  163.2106 C.ar    1  UNL1       -0.0000
@<TRIPOS>BOND
     1    15    16    1
     2    16    17    1
     3    16    18    1
     4    16    11    1
     5    11    12   am
     6    12    13    2
     7    12     1    1
     8     1     2    1
     9     2     3   ar
    10     3     4   ar
    11     4     5   ar
    12     5    19    1
    13    19    20    3
    14     5     6   ar
    15     6     7   ar
    16     7     8    1
    17     8     9    2
    18     8    10   am
    19    10    21    1
    20    21    22    1
    21    22    23   ar
    22    23    24   ar
    23    24    25   ar
    24    25    26   ar
    25    26    27   ar
    26    27    28    1
    27    28    29   ar
    28    29    30   ar
    29    30    31   ar
    30    31    32   ar
    31    32    33   ar
    32    10     1    1
    33    27    22   ar
    34    33    28   ar
    35     7     2   ar
    36    11    14    1
@<TRIPOS>MOLECULE
*****
 33 36 0 0 0
SMALL
GASTEIGER

@<TRIPOS>ATOM
      1 C         140.4600  140.9434  163.4460 C.3     1  UNL1        0.1753
      2 C         140.9201  140.2147  162.2183 C.ar    1  UNL1        0.0089
      3 C         140.5421  138.8829  161.6409 C.ar    1  UNL1       -0.0014
      4 C         141.1841  138.4064  160.3717 C.ar    1  UNL1        0.0100
      5 C         142.2040  139.2615  159.6801 C.ar    1  UNL1        0.0686
      6 C         142.5820  140.5933  160.2575 C.ar    1  UNL1        0.0145
      7 C         141.9400  141.0699  161.5266 C.ar    1  UNL1        0.0523
      8 C         142.1102  142.3271  162.3269 C.2     1  UNL1        0.2496
      9 O         143.0332  143.4631  161.9985 O.2     1  UNL1       -0.2699
     10 N         141.1956  142.2490  163.5131 N.am    1  UNL1       -0.2620
     11 N         139.7451  139.2598  165.2912 N.am    1  UNL1       -0.3059
     12 C         139.4429  140.4527  164.4333 C.2     1  UNL1        0.2448
     13 O         138.1237  141.1547  164.5627 O.2     1  UNL1       -0.2729
     14 H         140.6109  138.7991  165.2063 H       1  UNL1        0.1494
     15 C         138.2761  137.7295  165.2961 C.3     1  UNL1        0.0196
     16 C         138.7280  138.7691  166.2785 C.3     1  UNL1        0.0569
     17 C         139.1799  139.8088  167.2608 C.3     1  UNL1        0.0196
     18 C         137.7109  138.2784  167.2657 C.3     1  UNL1        0.0196
     19 C         142.8460  138.7849  158.4109 C.1     1  UNL1        0.1004
     20 N         143.4878  138.3083  157.1417 N.1     1  UNL1       -0.1908
     21 C         141.0431  143.2930  164.5793 C.3     1  UNL1        0.1212
     22 C         141.1883  142.9165  166.0240 C.ar    1  UNL1       -0.0023
     23 C         140.1240  143.2993  167.0094 C.ar    1  UNL1       -0.0026
     24 C         140.2692  142.9227  168.4541 C.ar    1  UNL1       -0.0003
     25 C         141.4785  142.1635  168.9134 C.ar    1  UNL1       -0.0000
     26 C         142.5427  141.7807  167.9281 C.ar    1  UNL1       -0.0003
     27 C         142.3976  142.1573  166.4833 C.ar    1  UNL1       -0.0024
     28 C         143.4619  141.7745  165.4980 C.ar    1  UNL1       -0.0003
     29 C         143.5435  140.3648  164.9920 C.ar    1  UNL1       -0.0000
     30 C         144.6077  139.9821  164.0067 C.ar    1  UNL1       -0.0000
     31 C         145.5904  141.0091  163.5273 C.ar    1  UNL1       -0.0000
     32 C         145.5087  142.4188  164.0333 C.ar    1  UNL1       -0.0000
     33 C         144.4444  142.8015  165.0187 C.ar    1  UNL1       -0.0000
@<TRIPOS>BOND
     1    15    16    1
     2    16    17    1
     3    16    18    1
     4    16    11    1
     5    11    12   am
     6    12    13    2
     7    12     1    1
     8     1     2    1
     9     2     3   ar
    10     3     4   ar
    11     4     5   ar
    12     5    19    1
    13    19    20    3
    14     5     6   ar
    15     6     7   ar
    16     7     8    1
    17     8     9    2
    18     8    10   am
    19    10    21    1
    20    21    22    1
    21    22    23   ar
    22    23    24   ar
    23    24    25   ar
    24    25    26   ar
    25    26    27   ar
    26    27    28    1
    27    28    29   ar
    28    29    30   ar
    29    30    31   ar
    30    31    32   ar
    31    32    33   ar
    32    10     1    1
    33    27    22   ar
    34    33    28   ar
    35     7     2   ar
    36    11    14    1
@<TRIPOS>MOLECULE
*****
 33 36 0 0 0
SMALL
GASTEIGER

@<TRIPOS>ATOM
      1 C         140.4853  142.1674  163.5577 C.3     1  UNL1        0.1753
      2 C         140.2950  142.8307  162.2259 C.ar    1  UNL1        0.0089
      3 C         139.3356  142.5701  161.1028 C.ar    1  UNL1       -0.0014
      4 C         139.3823  143.4161  159.8650 C.ar    1  UNL1        0.0100
      5 C         140.3885  144.5227  159.7504 C.ar    1  UNL1        0.0686
      6 C         141.3479  144.7833  160.8735 C.ar    1  UNL1        0.0145
      7 C         141.3012  143.9373  162.1113 C.ar    1  UNL1        0.0523
      8 C         142.1133  143.9578  163.3723 C.2     1  UNL1        0.2496
      9 O         143.2331  144.9058  163.6844 O.2     1  UNL1       -0.2699
     10 N         141.6091  142.8639  164.2662 N.am    1  UNL1       -0.2620
     11 N         140.1016  139.6056  163.7592 N.am    1  UNL1       -0.3059
     12 C         139.6912  141.0105  164.0879 C.2     1  UNL1        0.2448
     13 O         138.4869  141.2584  164.9469 O.2     1  UNL1       -0.2729
     14 H         140.8922  139.4429  163.1954 H       1  UNL1        0.1494
     15 C         140.0754  138.5117  165.5764 C.3     1  UNL1        0.0196
     16 C         139.3076  138.4488  164.2894 C.3     1  UNL1        0.0569
     17 C         138.5398  138.3859  163.0023 C.3     1  UNL1        0.0196
     18 C         138.5135  137.2920  164.8196 C.3     1  UNL1        0.0196
     19 C         140.4351  145.3687  158.5125 C.1     1  UNL1        0.1004
     20 N         140.4818  146.2146  157.2747 N.1     1  UNL1       -0.1908
     21 C         142.1361  142.5260  165.6293 C.3     1  UNL1        0.1212
     22 C         142.6691  141.1519  165.9079 C.ar    1  UNL1       -0.0023
     23 C         143.4204  140.4088  164.8432 C.ar    1  UNL1       -0.0026
     24 C         143.9535  139.0347  165.1217 C.ar    1  UNL1       -0.0003
     25 C         143.7353  138.4036  166.4649 C.ar    1  UNL1       -0.0000
     26 C         142.9840  139.1466  167.5296 C.ar    1  UNL1       -0.0003
     27 C         142.4509  140.5208  167.2510 C.ar    1  UNL1       -0.0024
     28 C         141.6997  141.2638  168.3157 C.ar    1  UNL1       -0.0003
     29 C         140.3178  140.8268  168.7022 C.ar    1  UNL1       -0.0000
     30 C         139.5665  141.5698  169.7668 C.ar    1  UNL1       -0.0000
     31 C         140.1971  142.7499  170.4450 C.ar    1  UNL1       -0.0000
     32 C         141.5791  143.1869  170.0585 C.ar    1  UNL1       -0.0000
     33 C         142.3303  142.4438  168.9938 C.ar    1  UNL1       -0.0000
@<TRIPOS>BOND
     1    15    16    1
     2    16    17    1
     3    16    18    1
     4    16    11    1
     5    11    12   am
     6    12    13    2
     7    12     1    1
     8     1     2    1
     9     2     3   ar
    10     3     4   ar
    11     4     5   ar
    12     5    19    1
    13    19    20    3
    14     5     6   ar
    15     6     7   ar
    16     7     8    1
    17     8     9    2
    18     8    10   am
    19    10    21    1
    20    21    22    1
    21    22    23   ar
    22    23    24   ar
    23    24    25   ar
    24    25    26   ar
    25    26    27   ar
    26    27    28    1
    27    28    29   ar
    28    29    30   ar
    29    30    31   ar
    30    31    32   ar
    31    32    33   ar
    32    10     1    1
    33    27    22   ar
    34    33    28   ar
    35     7     2   ar
    36    11    14    1
@<TRIPOS>MOLECULE
*****
 33 36 0 0 0
SMALL
GASTEIGER

@<TRIPOS>ATOM
      1 C         141.8296  140.8107  162.0049 C.3     1  UNL1        0.1753
      2 C         141.2343  141.7504  160.9986 C.ar    1  UNL1        0.0089
      3 C         139.8876  141.7937  160.3395 C.ar    1  UNL1       -0.0014
      4 C         139.5708  142.8768  159.3513 C.ar    1  UNL1        0.0100
      5 C         140.6007  143.9165  159.0221 C.ar    1  UNL1        0.0686
      6 C         141.9474  143.8732  159.6813 C.ar    1  UNL1        0.0145
      7 C         142.2642  142.7901  160.6695 C.ar    1  UNL1        0.0523
      8 C         143.4959  142.4929  161.4724 C.2     1  UNL1        0.2496
      9 O         144.7722  143.2808  161.4532 O.2     1  UNL1       -0.2699
     10 N         143.2273  141.2695  162.2977 N.am    1  UNL1       -0.2620
     11 N         139.9385  139.8115  163.4799 N.am    1  UNL1       -0.3059
     12 C         141.1468  139.6209  162.6118 C.2     1  UNL1        0.2448
     13 O         141.6723  138.2405  162.3506 O.2     1  UNL1       -0.2729
     14 H         139.5935  140.7175  163.6514 H       1  UNL1        0.1494
     15 C         138.4439  138.4502  162.8372 C.3     1  UNL1        0.0196
     16 C         139.2557  138.6217  164.0868 C.3     1  UNL1        0.0569
     17 C         140.0676  138.7933  165.3364 C.3     1  UNL1        0.0196
     18 C         138.5731  137.4320  164.6937 C.3     1  UNL1        0.0196
     19 C         140.2839  144.9996  158.0339 C.1     1  UNL1        0.1004
     20 N         139.9671  146.0826  157.0456 N.1     1  UNL1       -0.1908
     21 C         144.1878  140.6192  163.2488 C.3     1  UNL1        0.1212
     22 C         143.7490  140.2795  164.6423 C.ar    1  UNL1       -0.0023
     23 C         143.9572  138.8936  165.1773 C.ar    1  UNL1       -0.0026
     24 C         143.5185  138.5539  166.5709 C.ar    1  UNL1       -0.0003
     25 C         142.8716  139.6000  167.4295 C.ar    1  UNL1       -0.0000
     26 C         142.6634  140.9858  166.8946 C.ar    1  UNL1       -0.0003
     27 C         143.1021  141.3256  165.5010 C.ar    1  UNL1       -0.0024
     28 C         142.8940  142.7113  164.9661 C.ar    1  UNL1       -0.0003
     29 C         141.5241  143.1553  164.5462 C.ar    1  UNL1       -0.0000
     30 C         141.3159  144.5411  164.0113 C.ar    1  UNL1       -0.0000
     31 C         142.4776  145.4830  163.8962 C.ar    1  UNL1       -0.0000
     32 C         143.8475  145.0391  164.3161 C.ar    1  UNL1       -0.0000
     33 C         144.0557  143.6532  164.8510 C.ar    1  UNL1       -0.0000
@<TRIPOS>BOND
     1    15    16    1
     2    16    17    1
     3    16    18    1
     4    16    11    1
     5    11    12   am
     6    12    13    2
     7    12     1    1
     8     1     2    1
     9     2     3   ar
    10     3     4   ar
    11     4     5   ar
    12     5    19    1
    13    19    20    3
    14     5     6   ar
    15     6     7   ar
    16     7     8    1
    17     8     9    2
    18     8    10   am
    19    10    21    1
    20    21    22    1
    21    22    23   ar
    22    23    24   ar
    23    24    25   ar
    24    25    26   ar
    25    26    27   ar
    26    27    28    1
    27    28    29   ar
    28    29    30   ar
    29    30    31   ar
    30    31    32   ar
    31    32    33   ar
    32    10     1    1
    33    27    22   ar
    34    33    28   ar
    35     7     2   ar
    36    11    14    1
@<TRIPOS>MOLECULE
*****
 33 36 0 0 0
SMALL
GASTEIGER

@<TRIPOS>ATOM
      1 C         141.3208  139.1221  160.7612 C.3     1  UNL1        0.1753
      2 C         141.3800  138.4764  159.4086 C.ar    1  UNL1        0.0089
      3 C         142.4910  137.7879  158.6729 C.ar    1  UNL1       -0.0014
      4 C         142.2491  137.2281  157.3024 C.ar    1  UNL1        0.0100
      5 C         140.8962  137.3570  156.6677 C.ar    1  UNL1        0.0686
      6 C         139.7851  138.0456  157.4034 C.ar    1  UNL1        0.0145
      7 C         140.0270  138.6053  158.7739 C.ar    1  UNL1        0.0523
      8 C         139.1317  139.3306  159.7342 C.2     1  UNL1        0.2496
      9 O         137.6898  139.6758  159.5063 O.2     1  UNL1       -0.2699
     10 N         139.9312  139.6500  160.9625 N.am    1  UNL1       -0.2620
     11 N         142.7860  140.5430  162.3689 N.am    1  UNL1       -0.3059
     12 C         142.4525  139.2222  161.7406 C.2     1  UNL1        0.2448
     13 O         143.2506  138.0019  162.0919 O.2     1  UNL1       -0.2729
     14 H         142.2622  141.3440  162.1383 H       1  UNL1        0.1494
     15 C         142.9959  140.2264  164.4558 C.3     1  UNL1        0.0196
     16 C         143.9177  140.6431  163.3483 C.3     1  UNL1        0.0569
     17 C         144.8394  141.0599  162.2406 C.3     1  UNL1        0.0196
     18 C         145.0493  140.7433  164.3276 C.3     1  UNL1        0.0196
     19 C         140.6543  136.7972  155.2972 C.1     1  UNL1        0.1004
     20 N         140.4124  136.2375  153.9267 N.1     1  UNL1       -0.1908
     21 C         139.4294  140.3707  162.1785 C.3     1  UNL1        0.1212
     22 C         139.1071  139.6026  163.4259 C.ar    1  UNL1       -0.0023
     23 C         139.0528  138.1039  163.3909 C.ar    1  UNL1       -0.0026
     24 C         138.7304  137.3358  164.6383 C.ar    1  UNL1       -0.0003
     25 C         138.4623  138.0662  165.9207 C.ar    1  UNL1       -0.0000
     26 C         138.5166  139.5648  165.9558 C.ar    1  UNL1       -0.0003
     27 C         138.8389  140.3330  164.7083 C.ar    1  UNL1       -0.0024
     28 C         138.8932  141.8316  164.7434 C.ar    1  UNL1       -0.0003
     29 C         137.6679  142.6342  164.4201 C.ar    1  UNL1       -0.0000
     30 C         137.7221  144.1328  164.4552 C.ar    1  UNL1       -0.0000
     31 C         139.0017  144.8288  164.8134 C.ar    1  UNL1       -0.0000
     32 C         140.2270  144.0262  165.1366 C.ar    1  UNL1       -0.0000
     33 C         140.1727  142.5275  165.1016 C.ar    1  UNL1       -0.0000
@<TRIPOS>BOND
     1    15    16    1
     2    16    17    1
     3    16    18    1
     4    16    11    1
     5    11    12   am
     6    12    13    2
     7    12     1    1
     8     1     2    1
     9     2     3   ar
    10     3     4   ar
    11     4     5   ar
    12     5    19    1
    13    19    20    3
    14     5     6   ar
    15     6     7   ar
    16     7     8    1
    17     8     9    2
    18     8    10   am
    19    10    21    1
    20    21    22    1
    21    22    23   ar
    22    23    24   ar
    23    24    25   ar
    24    25    26   ar
    25    26    27   ar
    26    27    28    1
    27    28    29   ar
    28    29    30   ar
    29    30    31   ar
    30    31    32   ar
    31    32    33   ar
    32    10     1    1
    33    27    22   ar
    34    33    28   ar
    35     7     2   ar
    36    11    14    1
@<TRIPOS>MOLECULE
*****
 33 36 0 0 0
SMALL
GASTEIGER

@<TRIPOS>ATOM
      1 C         141.8570  141.2687  163.8811 C.3     1  UNL1        0.1753
      2 C         142.1381  141.2611  165.3545 C.ar    1  UNL1        0.0089
      3 C         142.2940  142.3701  166.3523 C.ar    1  UNL1       -0.0014
      4 C         142.5780  142.0508  167.7902 C.ar    1  UNL1        0.0100
      5 C         142.7061  140.6226  168.2301 C.ar    1  UNL1        0.0686
      6 C         142.5503  139.5135  167.2323 C.ar    1  UNL1        0.0145
      7 C         142.2663  139.8328  165.7945 C.ar    1  UNL1        0.0523
      8 C         142.0643  138.9578  164.5930 C.2     1  UNL1        0.2496
      9 O         142.1077  137.4585  164.5769 O.2     1  UNL1       -0.2699
     10 N         141.8114  139.8452  163.4105 N.am    1  UNL1       -0.2620
     11 N         140.5537  143.4519  163.3465 N.am    1  UNL1       -0.3059
     12 C         141.6566  142.4862  163.0281 C.2     1  UNL1        0.2448
     13 O         142.5590  142.7381  161.8568 O.2     1  UNL1       -0.2729
     14 H         139.9614  143.2865  164.1153 H       1  UNL1        0.1494
     15 C         139.3510  143.9230  161.6639 C.3     1  UNL1        0.0196
     16 C         140.3533  144.6693  162.4935 C.3     1  UNL1        0.0569
     17 C         141.3557  145.4156  163.3232 C.3     1  UNL1        0.0196
     18 C         140.1530  145.8867  161.6406 C.3     1  UNL1        0.0196
     19 C         142.9902  140.3033  169.6681 C.1     1  UNL1        0.1004
     20 N         143.2742  139.9841  171.1059 N.1     1  UNL1       -0.1908
     21 C         141.5574  139.3892  162.0042 C.3     1  UNL1        0.1212
     22 C         140.3955  139.9435  161.2343 C.ar    1  UNL1       -0.0023
     23 C         140.6073  140.5111  159.8621 C.ar    1  UNL1       -0.0026
     24 C         139.4454  141.0654  159.0922 C.ar    1  UNL1       -0.0003
     25 C         138.0717  141.0521  159.6945 C.ar    1  UNL1       -0.0000
     26 C         137.8599  140.4845  161.0666 C.ar    1  UNL1       -0.0003
     27 C         139.0218  139.9302  161.8366 C.ar    1  UNL1       -0.0024
     28 C         138.8100  139.3626  163.2088 C.ar    1  UNL1       -0.0003
     29 C         138.5321  140.2777  164.3643 C.ar    1  UNL1       -0.0000
     30 C         138.3203  139.7101  165.7365 C.ar    1  UNL1       -0.0000
     31 C         138.3863  138.2273  165.9532 C.ar    1  UNL1       -0.0000
     32 C         138.6641  137.3121  164.7976 C.ar    1  UNL1       -0.0000
     33 C         138.8759  137.8798  163.4254 C.ar    1  UNL1       -0.0000
@<TRIPOS>BOND
     1    15    16    1
     2    16    17    1
     3    16    18    1
     4    16    11    1
     5    11    12   am
     6    12    13    2
     7    12     1    1
     8     1     2    1
     9     2     3   ar
    10     3     4   ar
    11     4     5   ar
    12     5    19    1
    13    19    20    3
    14     5     6   ar
    15     6     7   ar
    16     7     8    1
    17     8     9    2
    18     8    10   am
    19    10    21    1
    20    21    22    1
    21    22    23   ar
    22    23    24   ar
    23    24    25   ar
    24    25    26   ar
    25    26    27   ar
    26    27    28    1
    27    28    29   ar
    28    29    30   ar
    29    30    31   ar
    30    31    32   ar
    31    32    33   ar
    32    10     1    1
    33    27    22   ar
    34    33    28   ar
    35     7     2   ar
    36    11    14    1
@<TRIPOS>MOLECULE
*****
 33 36 0 0 0
SMALL
GASTEIGER

@<TRIPOS>ATOM
      1 C         141.2844  138.9825  163.6918 C.3     1  UNL1        0.1753
      2 C         140.8576  139.3082  165.0925 C.ar    1  UNL1        0.0089
      3 C         139.5187  139.6381  165.6826 C.ar    1  UNL1       -0.0014
      4 C         139.3959  139.9253  167.1497 C.ar    1  UNL1        0.0100
      5 C         140.6122  139.8826  168.0266 C.ar    1  UNL1        0.0686
      6 C         141.9511  139.5527  167.4365 C.ar    1  UNL1        0.0145
      7 C         142.0738  139.2655  165.9694 C.ar    1  UNL1        0.0523
      8 C         143.2523  138.9134  165.1107 C.2     1  UNL1        0.2496
      9 O         144.6697  138.7627  165.5777 O.2     1  UNL1       -0.2699
     10 N         142.7644  138.7386  163.7031 N.am    1  UNL1       -0.2620
     11 N         139.6160  140.1247  162.0602 N.am    1  UNL1       -0.3059
     12 C         140.3885  138.9131  162.4908 C.2     1  UNL1        0.2448
     13 O         140.2650  137.6321  161.7203 O.2     1  UNL1       -0.2729
     14 H         139.6970  140.9655  162.5659 H       1  UNL1        0.1494
     15 C         139.8055  140.6545  160.0149 C.3     1  UNL1        0.0196
     16 C         138.7201  140.0552  160.8592 C.3     1  UNL1        0.0569
     17 C         137.6347  139.4559  161.7035 C.3     1  UNL1        0.0196
     18 C         137.8242  139.9858  159.6582 C.3     1  UNL1        0.0196
     19 C         140.4894  140.1698  169.4938 C.1     1  UNL1        0.1004
     20 N         140.3666  140.4570  170.9609 N.1     1  UNL1       -0.1908
     21 C         143.6083  138.3823  162.5153 C.3     1  UNL1        0.1212
     22 C         143.4550  139.1422  161.2312 C.ar    1  UNL1       -0.0023
     23 C         143.1617  138.4088  159.9560 C.ar    1  UNL1       -0.0026
     24 C         143.0083  139.1688  158.6719 C.ar    1  UNL1       -0.0003
     25 C         143.1482  140.6622  158.6630 C.ar    1  UNL1       -0.0000
     26 C         143.4415  141.3956  159.9381 C.ar    1  UNL1       -0.0003
     27 C         143.5949  140.6357  161.2223 C.ar    1  UNL1       -0.0024
     28 C         143.8882  141.3691  162.4974 C.ar    1  UNL1       -0.0003
     29 C         142.7936  142.1127  163.2038 C.ar    1  UNL1       -0.0000
     30 C         143.0869  142.8461  164.4789 C.ar    1  UNL1       -0.0000
     31 C         144.4749  142.8361  165.0477 C.ar    1  UNL1       -0.0000
     32 C         145.5695  142.0925  164.3413 C.ar    1  UNL1       -0.0000
     33 C         145.2761  141.3590  163.0661 C.ar    1  UNL1       -0.0000
@<TRIPOS>BOND
     1    15    16    1
     2    16    17    1
     3    16    18    1
     4    16    11    1
     5    11    12   am
     6    12    13    2
     7    12     1    1
     8     1     2    1
     9     2     3   ar
    10     3     4   ar
    11     4     5   ar
    12     5    19    1
    13    19    20    3
    14     5     6   ar
    15     6     7   ar
    16     7     8    1
    17     8     9    2
    18     8    10   am
    19    10    21    1
    20    21    22    1
    21    22    23   ar
    22    23    24   ar
    23    24    25   ar
    24    25    26   ar
    25    26    27   ar
    26    27    28    1
    27    28    29   ar
    28    29    30   ar
    29    30    31   ar
    30    31    32   ar
    31    32    33   ar
    32    10     1    1
    33    27    22   ar
    34    33    28   ar
    35     7     2   ar
    36    11    14    1
@<TRIPOS>MOLECULE
*****
 33 36 0 0 0
SMALL
GASTEIGER

@<TRIPOS>ATOM
      1 C         142.4634  141.8200  164.4804 C.3     1  UNL1        0.1753
      2 C         141.9494  141.8409  165.8895 C.ar    1  UNL1        0.0089
      3 C         141.1365  142.8489  166.6465 C.ar    1  UNL1       -0.0014
      4 C         140.7650  142.5912  168.0766 C.ar    1  UNL1        0.0100
      5 C         141.2063  141.3255  168.7498 C.ar    1  UNL1        0.0686
      6 C         142.0192  140.3175  167.9928 C.ar    1  UNL1        0.0145
      7 C         142.3907  140.5752  166.5626 C.ar    1  UNL1        0.0523
      8 C         143.1775  139.7721  165.5696 C.2     1  UNL1        0.2496
      9 O         143.8085  138.4345  165.8197 O.2     1  UNL1       -0.2699
     10 N         143.2224  140.5414  164.2828 N.am    1  UNL1       -0.2620
     11 N         140.8655  143.2547  163.0179 N.am    1  UNL1       -0.3059
     12 C         142.2550  142.8900  163.4500 C.2     1  UNL1        0.2448
     13 O         143.4358  143.5952  162.8515 O.2     1  UNL1       -0.2729
     14 H         140.0904  142.7918  163.4107 H       1  UNL1        0.1494
     15 C         140.5961  143.2787  160.9139 C.3     1  UNL1        0.0196
     16 C         140.6571  144.3246  161.9874 C.3     1  UNL1        0.0569
     17 C         140.7181  145.3704  163.0610 C.3     1  UNL1        0.0196
     18 C         140.4487  145.3944  160.9570 C.3     1  UNL1        0.0196
     19 C         140.8347  141.0678  170.1801 C.1     1  UNL1        0.1004
     20 N         140.4631  140.8102  171.6103 N.1     1  UNL1       -0.1908
     21 C         143.9062  140.1082  163.0199 C.3     1  UNL1        0.1212
     22 C         143.1885  140.2070  161.7065 C.ar    1  UNL1       -0.0023
     23 C         143.8417  140.8956  160.5449 C.ar    1  UNL1       -0.0026
     24 C         143.1240  140.9944  159.2314 C.ar    1  UNL1       -0.0003
     25 C         141.7532  140.4047  159.0796 C.ar    1  UNL1       -0.0000
     26 C         141.1000  139.7162  160.2412 C.ar    1  UNL1       -0.0003
     27 C         141.8177  139.6173  161.5547 C.ar    1  UNL1       -0.0024
     28 C         141.1646  138.9288  162.7162 C.ar    1  UNL1       -0.0003
     29 C         140.0440  139.6007  163.4529 C.ar    1  UNL1       -0.0000
     30 C         139.3908  138.9122  164.6145 C.ar    1  UNL1       -0.0000
     31 C         139.8583  137.5516  165.0394 C.ar    1  UNL1       -0.0000
     32 C         140.9789  136.8797  164.3027 C.ar    1  UNL1       -0.0000
     33 C         141.6321  137.5683  163.1411 C.ar    1  UNL1       -0.0000
@<TRIPOS>BOND
     1    15    16    1
     2    16    17    1
     3    16    18    1
     4    16    11    1
     5    11    12   am
     6    12    13    2
     7    12     1    1
     8     1     2    1
     9     2     3   ar
    10     3     4   ar
    11     4     5   ar
    12     5    19    1
    13    19    20    3
    14     5     6   ar
    15     6     7   ar
    16     7     8    1
    17     8     9    2
    18     8    10   am
    19    10    21    1
    20    21    22    1
    21    22    23   ar
    22    23    24   ar
    23    24    25   ar
    24    25    26   ar
    25    26    27   ar
    26    27    28    1
    27    28    29   ar
    28    29    30   ar
    29    30    31   ar
    30    31    32   ar
    31    32    33   ar
    32    10     1    1
    33    27    22   ar
    34    33    28   ar
    35     7     2   ar
    36    11    14    1
