@<TRIPOS>MOLECULE
*****
 42 46 0 0 0
SMALL
GASTEIGER

@<TRIPOS>ATOM
      1 N         137.8979  142.3465  163.0138 N.pl3   1  UNL1       -0.2801
      2 H         136.9901  142.7271  162.9951 H       1  UNL1        0.1552
      3 C         138.3291  138.6396  166.6295 C.3     1  UNL1        0.0307
      4 C         138.6936  140.0004  166.1142 C.ar    1  UNL1       -0.0244
      5 C         138.1135  140.4931  164.8217 C.ar    1  UNL1        0.0132
      6 C         138.4780  141.8538  164.3064 C.ar    1  UNL1        0.0846
      7 C         139.4226  142.7219  165.0837 C.ar    1  UNL1        0.1513
      8 C         140.0027  142.2292  166.3762 C.ar    1  UNL1        0.0336
      9 C         139.6382  140.8684  166.8915 C.ar    1  UNL1       -0.0233
     10 C         140.2183  140.3757  168.1841 C.3     1  UNL1        0.0249
     11 C         139.4196  140.4731  169.4500 C.3     1  UNL1        0.0215
     12 C         139.9997  139.9804  170.7426 C.3     1  UNL1        0.0689
     13 N         141.3786  139.3904  170.7693 N.3     1  UNL1       -0.2974
     14 C         142.1773  139.2931  169.5034 C.3     1  UNL1        0.0689
     15 C         141.5972  139.7857  168.2108 C.3     1  UNL1        0.0215
     16 H         141.2860  138.4418  171.1327 H       1  UNL1        0.1232
     17 O         139.7871  144.0826  164.5684 O.3     1  UNL1       -0.4779
     18 C         141.1945  144.3684  164.1356 C.3     1  UNL1        0.1660
     19 C         142.4758  143.5888  164.1113 C.3     1  UNL1        0.0436
     20 C         143.1851  144.7727  163.5234 C.3     1  UNL1        0.0074
     21 C         141.9038  145.5523  163.5477 C.3     1  UNL1        0.0436
     22 C         138.7008  142.2593  161.7499 C.ar    1  UNL1        0.2220
     23 N         138.2535  142.9999  160.5245 N.ar    1  UNL1       -0.2110
     24 C         139.0565  142.9127  159.2605 C.ar    1  UNL1        0.1160
     25 C         140.3068  142.0848  159.2219 C.ar    1  UNL1        0.1085
     26 CL        141.1098  141.9976  157.9579 Cl      1  UNL1       -0.0777
     27 C         140.7541  141.3442  160.4472 C.ar    1  UNL1        0.1472
     28 N         139.9511  141.4314  161.7112 N.ar    1  UNL1       -0.1976
     29 N         142.0044  140.5163  160.4086 N.pl3   1  UNL1       -0.2961
     30 H         142.0983  139.7974  159.7426 H       1  UNL1        0.1537
     31 C         143.1114  140.7838  161.3847 C.ar    1  UNL1        0.0667
     32 C         144.1609  141.8072  161.0664 C.ar    1  UNL1        0.0159
     33 C         145.2680  142.0747  162.0425 C.ar    1  UNL1        0.0014
     34 C         145.3256  141.3188  163.3369 C.ar    1  UNL1        0.0014
     35 C         144.2762  140.2954  163.6551 C.ar    1  UNL1        0.0196
     36 C         143.1690  140.0279  162.6790 C.ar    1  UNL1        0.1189
     37 S         142.1196  139.0045  162.9972 S.O2    1  UNL1        0.0082
     38 O         141.6212  139.8649  164.1204 O.2     1  UNL1       -0.1686
     39 O         142.6179  138.1442  161.8740 O.2     1  UNL1       -0.1686
     40 C         141.0701  137.9811  163.3154 C.3     1  UNL1        0.1340
     41 C         141.1894  137.1450  164.5551 C.3     1  UNL1        0.0257
     42 C         139.9013  137.7939  162.3941 C.3     1  UNL1        0.0257
@<TRIPOS>BOND
     1     3     4    1
     2     4     5   ar
     3     5     6   ar
     4     6     1    1
     5     1    22    1
     6    22    23   ar
     7    23    24   ar
     8    24    25   ar
     9    25    26    1
    10    25    27   ar
    11    27    29    1
    12    29    31    1
    13    31    32   ar
    14    32    33   ar
    15    33    34   ar
    16    34    35   ar
    17    35    36   ar
    18    36    37    1
    19    37    38    2
    20    37    39    2
    21    37    40    1
    22    40    41    1
    23    40    42    1
    24    27    28   ar
    25     6     7   ar
    26     7    17    1
    27    17    18    1
    28    18    19    1
    29    19    20    1
    30    20    21    1
    31     7     8   ar
    32     8     9   ar
    33     9    10    1
    34    10    11    1
    35    11    12    1
    36    12    13    1
    37    13    14    1
    38    14    15    1
    39     9     4   ar
    40    15    10    1
    41    28    22   ar
    42    21    18    1
    43    36    31   ar
    44     1     2    1
    45    29    30    1
    46    13    16    1
@<TRIPOS>MOLECULE
*****
 42 46 0 0 0
SMALL
GASTEIGER

@<TRIPOS>ATOM
      1 N         144.3041  139.9303  162.8548 N.pl3   1  UNL1       -0.2801
      2 H         145.2641  139.8060  162.6753 H       1  UNL1        0.1552
      3 C         142.6854  139.2634  167.7471 C.3     1  UNL1        0.0307
      4 C         143.0450  140.1737  166.6105 C.ar    1  UNL1       -0.0244
      5 C         143.4947  139.5968  165.3010 C.ar    1  UNL1        0.0132
      6 C         143.8544  140.5072  164.1644 C.ar    1  UNL1        0.0846
      7 C         143.7644  141.9945  164.3373 C.ar    1  UNL1        0.1513
      8 C         143.3147  142.5713  165.6468 C.ar    1  UNL1        0.0336
      9 C         142.9550  141.6610  166.7834 C.ar    1  UNL1       -0.0233
     10 C         142.5053  142.2379  168.0930 C.3     1  UNL1        0.0249
     11 C         143.4890  142.4160  169.2114 C.3     1  UNL1        0.0215
     12 C         143.0394  142.9929  170.5209 C.3     1  UNL1        0.0689
     13 N         141.6060  143.3918  170.7122 N.3     1  UNL1       -0.2974
     14 C         140.6224  143.2137  169.5938 C.3     1  UNL1        0.0689
     15 C         141.0721  142.6367  168.2842 C.3     1  UNL1        0.0215
     16 H         141.6056  144.3838  170.9495 H       1  UNL1        0.1232
     17 O         144.1241  142.9048  163.2007 O.3     1  UNL1       -0.4779
     18 C         143.0488  143.6525  162.4695 C.3     1  UNL1        0.1660
     19 C         142.1227  144.7821  162.8106 C.3     1  UNL1        0.0436
     20 C         141.5280  144.7100  161.4354 C.3     1  UNL1        0.0074
     21 C         142.4542  143.5804  161.0942 C.3     1  UNL1        0.0436
     22 C         143.2911  139.5426  161.8186 C.ar    1  UNL1        0.2220
     23 N         143.7226  139.2956  160.4034 N.ar    1  UNL1       -0.2110
     24 C         142.7096  138.9080  159.3673 C.ar    1  UNL1        0.1160
     25 C         141.2651  138.7673  159.7464 C.ar    1  UNL1        0.1085
     26 CL        140.2521  138.3796  158.7103 Cl      1  UNL1       -0.0777
     27 C         140.8336  139.0142  161.1616 C.ar    1  UNL1        0.1472
     28 N         141.8467  139.4019  162.1977 N.ar    1  UNL1       -0.1976
     29 N         139.3891  138.8735  161.5408 N.pl3   1  UNL1       -0.2961
     30 H         138.7039  138.7747  160.8409 H       1  UNL1        0.1537
     31 C         138.9888  138.8834  162.9863 C.ar    1  UNL1        0.0667
     32 C         139.0603  137.6209  163.7930 C.ar    1  UNL1        0.0159
     33 C         138.6599  137.6308  165.2385 C.ar    1  UNL1        0.0014
     34 C         138.1880  138.9033  165.8774 C.ar    1  UNL1        0.0014
     35 C         138.1165  140.1658  165.0707 C.ar    1  UNL1        0.0196
     36 C         138.5169  140.1559  163.6251 C.ar    1  UNL1        0.1189
     37 S         138.4453  141.4185  162.8184 S.O2    1  UNL1        0.0082
     38 O         139.7173  141.8964  163.4537 O.2     1  UNL1       -0.1686
     39 O         137.1734  140.9405  162.1830 O.2     1  UNL1       -0.1686
     40 C         138.3738  142.6810  162.0116 C.3     1  UNL1        0.1340
     41 C         138.1023  143.9907  162.6908 C.3     1  UNL1        0.0257
     42 C         138.5738  142.6340  160.5258 C.3     1  UNL1        0.0257
@<TRIPOS>BOND
     1     3     4    1
     2     4     5   ar
     3     5     6   ar
     4     6     1    1
     5     1    22    1
     6    22    23   ar
     7    23    24   ar
     8    24    25   ar
     9    25    26    1
    10    25    27   ar
    11    27    29    1
    12    29    31    1
    13    31    32   ar
    14    32    33   ar
    15    33    34   ar
    16    34    35   ar
    17    35    36   ar
    18    36    37    1
    19    37    38    2
    20    37    39    2
    21    37    40    1
    22    40    41    1
    23    40    42    1
    24    27    28   ar
    25     6     7   ar
    26     7    17    1
    27    17    18    1
    28    18    19    1
    29    19    20    1
    30    20    21    1
    31     7     8   ar
    32     8     9   ar
    33     9    10    1
    34    10    11    1
    35    11    12    1
    36    12    13    1
    37    13    14    1
    38    14    15    1
    39     9     4   ar
    40    15    10    1
    41    28    22   ar
    42    21    18    1
    43    36    31   ar
    44     1     2    1
    45    29    30    1
    46    13    16    1
@<TRIPOS>MOLECULE
*****
 42 46 0 0 0
SMALL
GASTEIGER

@<TRIPOS>ATOM
      1 N         139.8159  138.0171  162.9356 N.pl3   1  UNL1       -0.2801
      2 H         139.3628  137.1433  162.9564 H       1  UNL1        0.1552
      3 C         143.7755  138.3200  166.2867 C.3     1  UNL1        0.0307
      4 C         142.3962  138.7320  165.8649 C.ar    1  UNL1       -0.0244
      5 C         141.7957  138.1686  164.6112 C.ar    1  UNL1        0.0132
      6 C         140.4164  138.5805  164.1894 C.ar    1  UNL1        0.0846
      7 C         139.6376  139.5558  165.0214 C.ar    1  UNL1        0.1513
      8 C         140.2382  140.1192  166.2752 C.ar    1  UNL1        0.0336
      9 C         141.6175  139.7073  166.6969 C.ar    1  UNL1       -0.0233
     10 C         142.2180  140.2707  167.9508 C.3     1  UNL1        0.0249
     11 C         142.7943  141.6556  167.9497 C.3     1  UNL1        0.0215
     12 C         143.3948  142.2190  169.2034 C.3     1  UNL1        0.0689
     13 N         143.4190  141.3976  170.4583 N.3     1  UNL1       -0.2974
     14 C         142.8426  140.0127  170.4594 C.3     1  UNL1        0.0689
     15 C         142.2421  139.4493  169.2056 C.3     1  UNL1        0.0215
     16 H         142.9124  141.9279  171.1672 H       1  UNL1        0.1232
     17 O         138.2583  139.9678  164.5997 O.3     1  UNL1       -0.4779
     18 C         138.0344  141.3159  163.9815 C.3     1  UNL1        0.1660
     19 C         138.0120  142.7263  164.4917 C.3     1  UNL1        0.0436
     20 C         137.7176  143.2226  163.1071 C.3     1  UNL1        0.0074
     21 C         137.7400  141.8123  162.5969 C.3     1  UNL1        0.0436
     22 C         139.9057  138.7850  161.6502 C.ar    1  UNL1        0.2220
     23 N         139.1491  138.3170  160.4425 N.ar    1  UNL1       -0.2110
     24 C         139.2389  139.0850  159.1571 C.ar    1  UNL1        0.1160
     25 C         140.0854  140.3209  159.0795 C.ar    1  UNL1        0.1085
     26 CL        140.1753  141.0889  157.7941 Cl      1  UNL1       -0.0777
     27 C         140.8420  140.7889  160.2872 C.ar    1  UNL1        0.1472
     28 N         140.7521  140.0209  161.5726 N.ar    1  UNL1       -0.1976
     29 N         141.6885  142.0248  160.2095 N.pl3   1  UNL1       -0.2961
     30 H         142.5076  142.0270  159.6633 H       1  UNL1        0.1537
     31 C         141.2870  143.2575  160.9641 C.ar    1  UNL1        0.0667
     32 C         140.2839  144.2042  160.3746 C.ar    1  UNL1        0.0159
     33 C         139.8824  145.4369  161.1292 C.ar    1  UNL1        0.0014
     34 C         140.4840  145.7228  162.4733 C.ar    1  UNL1        0.0014
     35 C         141.4871  144.7760  163.0627 C.ar    1  UNL1        0.0196
     36 C         141.8886  143.5433  162.3081 C.ar    1  UNL1        0.1189
     37 S         142.8916  142.5965  162.8975 S.O2    1  UNL1        0.0082
     38 O         143.8966  143.0200  161.8676 O.2     1  UNL1       -0.1686
     39 O         141.8867  142.1731  163.9275 O.2     1  UNL1       -0.1686
     40 C         143.8947  141.6497  163.4870 C.3     1  UNL1        0.1340
     41 C         144.5697  141.9842  164.7842 C.3     1  UNL1        0.0257
     42 C         144.2228  140.3685  162.7793 C.3     1  UNL1        0.0257
@<TRIPOS>BOND
     1     3     4    1
     2     4     5   ar
     3     5     6   ar
     4     6     1    1
     5     1    22    1
     6    22    23   ar
     7    23    24   ar
     8    24    25   ar
     9    25    26    1
    10    25    27   ar
    11    27    29    1
    12    29    31    1
    13    31    32   ar
    14    32    33   ar
    15    33    34   ar
    16    34    35   ar
    17    35    36   ar
    18    36    37    1
    19    37    38    2
    20    37    39    2
    21    37    40    1
    22    40    41    1
    23    40    42    1
    24    27    28   ar
    25     6     7   ar
    26     7    17    1
    27    17    18    1
    28    18    19    1
    29    19    20    1
    30    20    21    1
    31     7     8   ar
    32     8     9   ar
    33     9    10    1
    34    10    11    1
    35    11    12    1
    36    12    13    1
    37    13    14    1
    38    14    15    1
    39     9     4   ar
    40    15    10    1
    41    28    22   ar
    42    21    18    1
    43    36    31   ar
    44     1     2    1
    45    29    30    1
    46    13    16    1
@<TRIPOS>MOLECULE
*****
 42 46 0 0 0
SMALL
GASTEIGER

@<TRIPOS>ATOM
      1 N         144.4805  139.1926  163.2357 N.pl3   1  UNL1       -0.2801
      2 H         145.4090  138.8666  163.2095 H       1  UNL1        0.1552
      3 C         142.6376  139.0846  168.0929 C.3     1  UNL1        0.0307
      4 C         143.0514  139.8601  166.8774 C.ar    1  UNL1       -0.0244
      5 C         143.5590  139.1386  165.6643 C.ar    1  UNL1        0.0132
      6 C         143.9729  139.9142  164.4489 C.ar    1  UNL1        0.0846
      7 C         143.8791  141.4112  164.4466 C.ar    1  UNL1        0.1513
      8 C         143.3715  142.1327  165.6597 C.ar    1  UNL1        0.0336
      9 C         142.9577  141.3572  166.8752 C.ar    1  UNL1       -0.0233
     10 C         142.4501  142.0787  168.0884 C.3     1  UNL1        0.0249
     11 C         143.3763  142.3649  169.2330 C.3     1  UNL1        0.0215
     12 C         142.8688  143.0864  170.4461 C.3     1  UNL1        0.0689
     13 N         141.4349  143.5218  170.5147 N.3     1  UNL1       -0.2974
     14 C         140.5087  143.2357  169.3700 C.3     1  UNL1        0.0689
     15 C         141.0163  142.5141  168.1568 C.3     1  UNL1        0.0215
     16 H         141.4403  144.5337  170.6432 H       1  UNL1        0.1232
     17 O         144.2930  142.1868  163.2312 O.3     1  UNL1       -0.4779
     18 C         143.2830  143.0074  162.4853 C.3     1  UNL1        0.1660
     19 C         142.2324  142.7166  161.4549 C.3     1  UNL1        0.0436
     20 C         141.8545  144.1680  161.4304 C.3     1  UNL1        0.0074
     21 C         142.9051  144.4588  162.4607 C.3     1  UNL1        0.0436
     22 C         143.5732  138.9678  162.0625 C.ar    1  UNL1        0.2220
     23 N         144.1458  138.5469  160.7414 N.ar    1  UNL1       -0.2110
     24 C         143.2386  138.3222  159.5682 C.ar    1  UNL1        0.1160
     25 C         141.7588  138.5183  159.7161 C.ar    1  UNL1        0.1085
     26 CL        140.8515  138.2935  158.5429 Cl      1  UNL1       -0.0777
     27 C         141.1863  138.9391  161.0371 C.ar    1  UNL1        0.1472
     28 N         142.0935  139.1639  162.2103 N.ar    1  UNL1       -0.1976
     29 N         139.7065  139.1352  161.1849 N.pl3   1  UNL1       -0.2961
     30 H         139.0965  138.3682  161.0911 H       1  UNL1        0.1537
     31 C         139.1561  140.5000  161.4757 C.ar    1  UNL1        0.0667
     32 C         138.8477  141.4402  160.3484 C.ar    1  UNL1        0.0159
     33 C         138.2974  142.8049  160.6392 C.ar    1  UNL1        0.0014
     34 C         138.0554  143.2295  162.0575 C.ar    1  UNL1        0.0014
     35 C         138.3638  142.2892  163.1848 C.ar    1  UNL1        0.0196
     36 C         138.9142  140.9245  162.8939 C.ar    1  UNL1        0.1189
     37 S         139.2226  139.9842  164.0212 S.O2    1  UNL1        0.0082
     38 O         140.2938  140.9160  164.5053 O.2     1  UNL1       -0.1686
     39 O         138.1513  139.0525  163.5372 O.2     1  UNL1       -0.1686
     40 C         139.5309  139.0440  165.1486 C.3     1  UNL1        0.1340
     41 C         140.1574  137.7112  164.8635 C.3     1  UNL1        0.0257
     42 C         139.2129  139.4365  166.5609 C.3     1  UNL1        0.0257
@<TRIPOS>BOND
     1     3     4    1
     2     4     5   ar
     3     5     6   ar
     4     6     1    1
     5     1    22    1
     6    22    23   ar
     7    23    24   ar
     8    24    25   ar
     9    25    26    1
    10    25    27   ar
    11    27    29    1
    12    29    31    1
    13    31    32   ar
    14    32    33   ar
    15    33    34   ar
    16    34    35   ar
    17    35    36   ar
    18    36    37    1
    19    37    38    2
    20    37    39    2
    21    37    40    1
    22    40    41    1
    23    40    42    1
    24    27    28   ar
    25     6     7   ar
    26     7    17    1
    27    17    18    1
    28    18    19    1
    29    19    20    1
    30    20    21    1
    31     7     8   ar
    32     8     9   ar
    33     9    10    1
    34    10    11    1
    35    11    12    1
    36    12    13    1
    37    13    14    1
    38    14    15    1
    39     9     4   ar
    40    15    10    1
    41    28    22   ar
    42    21    18    1
    43    36    31   ar
    44     1     2    1
    45    29    30    1
    46    13    16    1
@<TRIPOS>MOLECULE
*****
 42 46 0 0 0
SMALL
GASTEIGER

@<TRIPOS>ATOM
      1 N         137.5505  141.0830  163.5510 N.pl3   1  UNL1       -0.2801
      2 H         136.5749  141.1825  163.6378 H       1  UNL1        0.1552
      3 C         139.8788  139.8019  168.0162 C.3     1  UNL1        0.0307
      4 C         139.6104  140.8028  166.9316 C.ar    1  UNL1       -0.0244
      5 C         138.7147  140.4425  165.7836 C.ar    1  UNL1        0.0132
      6 C         138.4463  141.4433  164.6990 C.ar    1  UNL1        0.0846
      7 C         139.0735  142.8044  164.7625 C.ar    1  UNL1        0.1513
      8 C         139.9692  143.1646  165.9105 C.ar    1  UNL1        0.0336
      9 C         140.2376  142.1638  166.9950 C.ar    1  UNL1       -0.0233
     10 C         141.1333  142.5241  168.1431 C.3     1  UNL1        0.0249
     11 C         142.5657  142.0789  168.1452 C.3     1  UNL1        0.0215
     12 C         143.4614  142.4392  169.2931 C.3     1  UNL1        0.0689
     13 N         142.9248  143.2447  170.4391 N.3     1  UNL1       -0.2974
     14 C         141.4923  143.6899  170.4370 C.3     1  UNL1        0.0689
     15 C         140.5966  143.3296  169.2890 C.3     1  UNL1        0.0215
     16 H         143.4952  144.0882  170.4988 H       1  UNL1        0.1232
     17 O         138.8051  143.8052  163.6779 O.3     1  UNL1       -0.4779
     18 C         139.8901  144.1698  162.7085 C.3     1  UNL1        0.1660
     19 C         140.2003  145.3719  161.8667 C.3     1  UNL1        0.0436
     20 C         141.4247  144.6855  161.3375 C.3     1  UNL1        0.0074
     21 C         141.1144  143.4834  162.1794 C.3     1  UNL1        0.0436
     22 C         138.1413  140.5711  162.2708 C.ar    1  UNL1        0.2220
     23 N         137.2911  140.4730  161.0389 N.ar    1  UNL1       -0.2110
     24 C         137.8819  139.9611  159.7587 C.ar    1  UNL1        0.1160
     25 C         139.3229  139.5474  159.7103 C.ar    1  UNL1        0.1085
     26 CL        139.9137  139.0355  158.4301 Cl      1  UNL1       -0.0777
     27 C         140.1731  139.6456  160.9422 C.ar    1  UNL1        0.1472
     28 N         139.5823  140.1574  162.2224 N.ar    1  UNL1       -0.1976
     29 N         141.6142  139.2318  160.8939 N.pl3   1  UNL1       -0.2961
     30 H         141.8515  138.2965  160.6985 H       1  UNL1        0.1537
     31 C         142.6935  140.2431  161.1432 C.ar    1  UNL1        0.0667
     32 C         143.1701  141.1225  160.0253 C.ar    1  UNL1        0.0159
     33 C         144.2495  142.1337  160.2746 C.ar    1  UNL1        0.0014
     34 C         144.8524  142.2657  161.6418 C.ar    1  UNL1        0.0014
     35 C         144.3758  141.3863  162.7597 C.ar    1  UNL1        0.0196
     36 C         143.2964  140.3750  162.5103 C.ar    1  UNL1        0.1189
     37 S         142.8198  139.4956  163.6282 S.O2    1  UNL1        0.0082
     38 O         142.2248  140.6897  164.3139 O.2     1  UNL1       -0.1686
     39 O         143.4147  138.3015  162.9425 O.2     1  UNL1       -0.1686
     40 C         142.3432  138.6163  164.7460 C.3     1  UNL1        0.1340
     41 C         142.9922  138.7010  166.0958 C.3     1  UNL1        0.0257
     42 C         141.2177  137.6522  164.5142 C.3     1  UNL1        0.0257
@<TRIPOS>BOND
     1     3     4    1
     2     4     5   ar
     3     5     6   ar
     4     6     1    1
     5     1    22    1
     6    22    23   ar
     7    23    24   ar
     8    24    25   ar
     9    25    26    1
    10    25    27   ar
    11    27    29    1
    12    29    31    1
    13    31    32   ar
    14    32    33   ar
    15    33    34   ar
    16    34    35   ar
    17    35    36   ar
    18    36    37    1
    19    37    38    2
    20    37    39    2
    21    37    40    1
    22    40    41    1
    23    40    42    1
    24    27    28   ar
    25     6     7   ar
    26     7    17    1
    27    17    18    1
    28    18    19    1
    29    19    20    1
    30    20    21    1
    31     7     8   ar
    32     8     9   ar
    33     9    10    1
    34    10    11    1
    35    11    12    1
    36    12    13    1
    37    13    14    1
    38    14    15    1
    39     9     4   ar
    40    15    10    1
    41    28    22   ar
    42    21    18    1
    43    36    31   ar
    44     1     2    1
    45    29    30    1
    46    13    16    1
@<TRIPOS>MOLECULE
*****
 42 46 0 0 0
SMALL
GASTEIGER

@<TRIPOS>ATOM
      1 N         139.5938  138.1803  163.1161 N.pl3   1  UNL1       -0.2801
      2 H         138.9713  137.4199  163.1762 H       1  UNL1        0.1552
      3 C         143.6259  138.3060  166.3913 C.3     1  UNL1        0.0307
      4 C         142.2594  138.7805  165.9944 C.ar    1  UNL1       -0.0244
      5 C         141.6098  138.2432  164.7537 C.ar    1  UNL1        0.0132
      6 C         140.2433  138.7178  164.3569 C.ar    1  UNL1        0.0846
      7 C         139.5264  139.7297  165.2007 C.ar    1  UNL1        0.1513
      8 C         140.1760  140.2670  166.4413 C.ar    1  UNL1        0.0336
      9 C         141.5425  139.7924  166.8382 C.ar    1  UNL1       -0.0233
     10 C         142.1920  140.3299  168.0789 C.3     1  UNL1        0.0249
     11 C         142.2164  139.5038  169.3307 C.3     1  UNL1        0.0215
     12 C         142.8659  140.0411  170.5714 C.3     1  UNL1        0.0689
     13 N         143.4911  141.4046  170.5603 N.3     1  UNL1       -0.2974
     14 C         143.4668  142.2307  169.3085 C.3     1  UNL1        0.0689
     15 C         142.8172  141.6933  168.0678 C.3     1  UNL1        0.0215
     16 H         144.4717  141.2810  170.8125 H       1  UNL1        0.1232
     17 O         138.1599  140.2042  164.8038 O.3     1  UNL1       -0.4779
     18 C         137.9980  141.5169  164.0964 C.3     1  UNL1        0.1660
     19 C         138.0036  142.9566  164.5175 C.3     1  UNL1        0.0436
     20 C         137.7690  143.3735  163.0959 C.3     1  UNL1        0.0074
     21 C         137.7634  141.9339  162.6747 C.3     1  UNL1        0.0436
     22 C         139.8926  138.8016  161.7839 C.ar    1  UNL1        0.2220
     23 N         139.4175  138.1398  160.5243 N.ar    1  UNL1       -0.2110
     24 C         139.7163  138.7610  159.1921 C.ar    1  UNL1        0.1160
     25 C         140.4901  140.0440  159.1195 C.ar    1  UNL1        0.1085
     26 CL        140.7889  140.6652  157.7872 Cl      1  UNL1       -0.0777
     27 C         140.9652  140.7056  160.3790 C.ar    1  UNL1        0.1472
     28 N         140.6664  140.0844  161.7112 N.ar    1  UNL1       -0.1976
     29 N         141.7391  141.9886  160.3064 N.pl3   1  UNL1       -0.2961
     30 H         142.4006  142.1245  159.5900 H       1  UNL1        0.1537
     31 C         141.5050  143.0644  161.3251 C.ar    1  UNL1        0.0667
     32 C         141.8812  142.8343  162.7588 C.ar    1  UNL1        0.0159
     33 C         141.6472  143.9100  163.7775 C.ar    1  UNL1        0.0014
     34 C         141.0369  145.2160  163.3626 C.ar    1  UNL1        0.0014
     35 C         140.6607  145.4461  161.9289 C.ar    1  UNL1        0.0196
     36 C         140.8948  144.3702  160.9101 C.ar    1  UNL1        0.1189
     37 S         140.5186  144.6003  159.4764 S.O2    1  UNL1        0.0082
     38 O         141.8190  145.3128  159.2495 O.2     1  UNL1       -0.1686
     39 O         139.2183  143.8879  159.7033 O.2     1  UNL1       -0.1686
     40 C         140.1424  144.8304  158.0427 C.3     1  UNL1        0.1340
     41 C         139.3364  143.8029  157.3046 C.3     1  UNL1        0.0257
     42 C         140.5722  146.0879  157.3470 C.3     1  UNL1        0.0257
@<TRIPOS>BOND
     1     3     4    1
     2     4     5   ar
     3     5     6   ar
     4     6     1    1
     5     1    22    1
     6    22    23   ar
     7    23    24   ar
     8    24    25   ar
     9    25    26    1
    10    25    27   ar
    11    27    29    1
    12    29    31    1
    13    31    32   ar
    14    32    33   ar
    15    33    34   ar
    16    34    35   ar
    17    35    36   ar
    18    36    37    1
    19    37    38    2
    20    37    39    2
    21    37    40    1
    22    40    41    1
    23    40    42    1
    24    27    28   ar
    25     6     7   ar
    26     7    17    1
    27    17    18    1
    28    18    19    1
    29    19    20    1
    30    20    21    1
    31     7     8   ar
    32     8     9   ar
    33     9    10    1
    34    10    11    1
    35    11    12    1
    36    12    13    1
    37    13    14    1
    38    14    15    1
    39     9     4   ar
    40    15    10    1
    41    28    22   ar
    42    21    18    1
    43    36    31   ar
    44     1     2    1
    45    29    30    1
    46    13    16    1
@<TRIPOS>MOLECULE
*****
 42 46 0 0 0
SMALL
GASTEIGER

@<TRIPOS>ATOM
      1 N         144.4466  139.4533  162.7399 N.pl3   1  UNL1       -0.2801
      2 H         145.2429  138.8753  162.7736 H       1  UNL1        0.1552
      3 C         144.4061  143.5164  165.9787 C.3     1  UNL1        0.0307
      4 C         143.9249  142.1444  165.6097 C.ar    1  UNL1       -0.0244
      5 C         144.4263  141.4848  164.3593 C.ar    1  UNL1        0.0132
      6 C         143.9451  140.1129  163.9903 C.ar    1  UNL1        0.0846
      7 C         142.9624  139.4005  164.8717 C.ar    1  UNL1        0.1513
      8 C         142.4609  140.0601  166.1220 C.ar    1  UNL1        0.0336
      9 C         142.9422  141.4321  166.4910 C.ar    1  UNL1       -0.0233
     10 C         142.4407  142.0917  167.7415 C.3     1  UNL1        0.0249
     11 C         143.3427  142.2254  168.9324 C.3     1  UNL1        0.0215
     12 C         142.8413  142.8850  170.1828 C.3     1  UNL1        0.0689
     13 N         141.4377  143.4109  170.2423 N.3     1  UNL1       -0.2974
     14 C         140.5356  143.2771  169.0513 C.3     1  UNL1        0.0689
     15 C         141.0371  142.6175  167.8009 C.3     1  UNL1        0.0215
     16 H         141.5051  144.4072  170.4502 H       1  UNL1        0.1232
     17 O         142.4811  138.0286  164.5027 O.3     1  UNL1       -0.4779
     18 C         141.0858  137.8368  163.9868 C.3     1  UNL1        0.1660
     19 C         139.7242  137.7656  164.6120 C.3     1  UNL1        0.0436
     20 C         139.1124  137.5655  163.2571 C.3     1  UNL1        0.0074
     21 C         140.4740  137.6367  162.6319 C.3     1  UNL1        0.0436
     22 C         143.7349  139.6743  161.4382 C.ar    1  UNL1        0.2220
     23 N         144.2270  139.0021  160.1907 N.ar    1  UNL1       -0.2110
     24 C         143.5153  139.2232  158.8890 C.ar    1  UNL1        0.1160
     25 C         142.3114  140.1165  158.8346 C.ar    1  UNL1        0.1085
     26 CL        141.5997  140.3375  157.5329 Cl      1  UNL1       -0.0777
     27 C         141.8193  140.7886  160.0820 C.ar    1  UNL1        0.1472
     28 N         142.5311  140.5675  161.3838 N.ar    1  UNL1       -0.1976
     29 N         140.6155  141.6818  160.0277 N.pl3   1  UNL1       -0.2961
     30 H         140.5425  142.3675  159.3250 H       1  UNL1        0.1537
     31 C         139.5228  141.5305  161.0441 C.ar    1  UNL1        0.0667
     32 C         138.3971  140.5701  160.7977 C.ar    1  UNL1        0.0159
     33 C         137.3044  140.4187  161.8141 C.ar    1  UNL1        0.0014
     34 C         137.3373  141.2277  163.0769 C.ar    1  UNL1        0.0014
     35 C         138.4630  142.1880  163.3232 C.ar    1  UNL1        0.0196
     36 C         139.5557  142.3394  162.3068 C.ar    1  UNL1        0.1189
     37 S         140.6813  143.2998  162.5531 S.O2    1  UNL1        0.0082
     38 O         140.2489  144.1107  161.3676 O.2     1  UNL1       -0.1686
     39 O         141.1137  142.4888  163.7386 O.2     1  UNL1       -0.1686
     40 C         141.8070  144.2601  162.7994 C.3     1  UNL1        0.1340
     41 C         143.0862  144.1304  162.0268 C.3     1  UNL1        0.0257
     42 C         141.6534  145.3502  163.8183 C.3     1  UNL1        0.0257
@<TRIPOS>BOND
     1     3     4    1
     2     4     5   ar
     3     5     6   ar
     4     6     1    1
     5     1    22    1
     6    22    23   ar
     7    23    24   ar
     8    24    25   ar
     9    25    26    1
    10    25    27   ar
    11    27    29    1
    12    29    31    1
    13    31    32   ar
    14    32    33   ar
    15    33    34   ar
    16    34    35   ar
    17    35    36   ar
    18    36    37    1
    19    37    38    2
    20    37    39    2
    21    37    40    1
    22    40    41    1
    23    40    42    1
    24    27    28   ar
    25     6     7   ar
    26     7    17    1
    27    17    18    1
    28    18    19    1
    29    19    20    1
    30    20    21    1
    31     7     8   ar
    32     8     9   ar
    33     9    10    1
    34    10    11    1
    35    11    12    1
    36    12    13    1
    37    13    14    1
    38    14    15    1
    39     9     4   ar
    40    15    10    1
    41    28    22   ar
    42    21    18    1
    43    36    31   ar
    44     1     2    1
    45    29    30    1
    46    13    16    1
@<TRIPOS>MOLECULE
*****
 42 46 0 0 0
SMALL
GASTEIGER

@<TRIPOS>ATOM
      1 N         137.9638  142.6314  163.1110 N.pl3   1  UNL1       -0.2801
      2 H         137.0407  142.9736  163.1118 H       1  UNL1        0.1552
      3 C         140.4998  143.3576  167.5877 C.3     1  UNL1        0.0307
      4 C         139.8275  142.4404  166.6096 C.ar    1  UNL1       -0.0244
      5 C         139.2318  142.9945  165.3494 C.ar    1  UNL1        0.0132
      6 C         138.5595  142.0773  164.3712 C.ar    1  UNL1        0.0846
      7 C         138.4828  140.6061  164.6533 C.ar    1  UNL1        0.1513
      8 C         139.0785  140.0520  165.9135 C.ar    1  UNL1        0.0336
      9 C         139.7508  140.9692  166.8916 C.ar    1  UNL1       -0.0233
     10 C         140.3465  140.4151  168.1519 C.3     1  UNL1        0.0249
     11 C         139.5407  140.3955  169.4169 C.3     1  UNL1        0.0215
     12 C         140.1363  139.8414  170.6771 C.3     1  UNL1        0.0689
     13 N         141.5379  139.3069  170.6724 N.3     1  UNL1       -0.2974
     14 C         142.3437  139.3264  169.4074 C.3     1  UNL1        0.0689
     15 C         141.7480  139.8805  168.1471 C.3     1  UNL1        0.0215
     16 H         141.4826  138.3332  170.9713 H       1  UNL1        0.1232
     17 O         137.8105  139.6889  163.6751 O.3     1  UNL1       -0.4779
     18 C         138.6151  139.0160  162.6029 C.3     1  UNL1        0.1660
     19 C         138.2916  138.3065  161.3215 C.3     1  UNL1        0.0436
     20 C         139.7531  138.0642  161.0865 C.3     1  UNL1        0.0074
     21 C         140.0767  138.7737  162.3679 C.3     1  UNL1        0.0436
     22 C         138.7746  142.6642  161.8495 C.ar    1  UNL1        0.2220
     23 N         138.1149  142.9894  160.5421 N.ar    1  UNL1       -0.2110
     24 C         138.9258  143.0222  159.2806 C.ar    1  UNL1        0.1160
     25 C         140.3963  142.7298  159.3264 C.ar    1  UNL1        0.1085
     26 CL        141.2072  142.7626  158.0649 Cl      1  UNL1       -0.0777
     27 C         141.0560  142.4046  160.6337 C.ar    1  UNL1        0.1472
     28 N         140.2451  142.3718  161.8952 N.ar    1  UNL1       -0.1976
     29 N         142.5265  142.1121  160.6795 N.pl3   1  UNL1       -0.2961
     30 H         143.1755  142.8140  160.4442 H       1  UNL1        0.1537
     31 C         143.0081  140.7504  161.0839 C.ar    1  UNL1        0.0667
     32 C         143.1015  139.6544  160.0641 C.ar    1  UNL1        0.0159
     33 C         143.5831  138.2926  160.4685 C.ar    1  UNL1        0.0014
     34 C         143.9715  138.0268  161.8929 C.ar    1  UNL1        0.0014
     35 C         143.8781  139.1228  162.9127 C.ar    1  UNL1        0.0196
     36 C         143.3964  140.4846  162.5082 C.ar    1  UNL1        0.1189
     37 S         143.3031  141.5806  163.5280 S.O2    1  UNL1        0.0082
     38 O         142.1965  140.8419  164.2207 O.2     1  UNL1       -0.1686
     39 O         144.4097  142.3194  162.8354 O.2     1  UNL1       -0.1686
     40 C         143.2098  142.6766  164.5479 C.3     1  UNL1        0.1340
     41 C         142.7240  144.0373  164.1443 C.3     1  UNL1        0.0257
     42 C         143.6021  142.4121  165.9712 C.3     1  UNL1        0.0257
@<TRIPOS>BOND
     1     3     4    1
     2     4     5   ar
     3     5     6   ar
     4     6     1    1
     5     1    22    1
     6    22    23   ar
     7    23    24   ar
     8    24    25   ar
     9    25    26    1
    10    25    27   ar
    11    27    29    1
    12    29    31    1
    13    31    32   ar
    14    32    33   ar
    15    33    34   ar
    16    34    35   ar
    17    35    36   ar
    18    36    37    1
    19    37    38    2
    20    37    39    2
    21    37    40    1
    22    40    41    1
    23    40    42    1
    24    27    28   ar
    25     6     7   ar
    26     7    17    1
    27    17    18    1
    28    18    19    1
    29    19    20    1
    30    20    21    1
    31     7     8   ar
    32     8     9   ar
    33     9    10    1
    34    10    11    1
    35    11    12    1
    36    12    13    1
    37    13    14    1
    38    14    15    1
    39     9     4   ar
    40    15    10    1
    41    28    22   ar
    42    21    18    1
    43    36    31   ar
    44     1     2    1
    45    29    30    1
    46    13    16    1
@<TRIPOS>MOLECULE
*****
 42 46 0 0 0
SMALL
GASTEIGER

@<TRIPOS>ATOM
      1 N         139.1693  137.8764  163.5671 N.pl3   1  UNL1       -0.2801
      2 H         138.7748  136.9770  163.6347 H       1  UNL1        0.1552
      3 C         139.1855  140.2097  168.2099 C.3     1  UNL1        0.0307
      4 C         139.9314  139.6205  167.0495 C.ar    1  UNL1       -0.0244
      5 C         139.1775  139.0431  165.8885 C.ar    1  UNL1        0.0132
      6 C         139.9234  138.4539  164.7282 C.ar    1  UNL1        0.0846
      7 C         141.4233  138.4422  164.7288 C.ar    1  UNL1        0.1513
      8 C         142.1773  139.0197  165.8898 C.ar    1  UNL1        0.0336
      9 C         141.4314  139.6088  167.0502 C.ar    1  UNL1       -0.0233
     10 C         142.1854  140.1863  168.2112 C.3     1  UNL1        0.0249
     11 C         142.3709  139.3786  169.4615 C.3     1  UNL1        0.0215
     12 C         143.1249  139.9560  170.6225 C.3     1  UNL1        0.0689
     13 N         143.6935  141.3413  170.5333 N.3     1  UNL1       -0.2974
     14 C         143.5081  142.1490  169.2830 C.3     1  UNL1        0.0689
     15 C         142.7540  141.5715  168.1220 C.3     1  UNL1        0.0215
     16 H         144.6989  141.2570  170.6830 H       1  UNL1        0.1232
     17 O         142.1693  137.8531  163.5684 O.3     1  UNL1       -0.4779
     18 C         143.0150  138.7326  162.6961 C.3     1  UNL1        0.1660
     19 C         143.4397  140.1707  162.7339 C.3     1  UNL1        0.0436
     20 C         144.2112  139.9765  161.4623 C.3     1  UNL1        0.0074
     21 C         143.7866  138.5383  161.4244 C.3     1  UNL1        0.0436
     22 C         139.0164  138.6694  162.3031 C.ar    1  UNL1        0.2220
     23 N         139.3084  138.0311  160.9773 N.ar    1  UNL1       -0.2110
     24 C         139.1555  138.8241  159.7133 C.ar    1  UNL1        0.1160
     25 C         138.7106  140.2553  159.7750 C.ar    1  UNL1        0.1085
     26 CL        138.5577  141.0483  158.5109 Cl      1  UNL1       -0.0777
     27 C         138.4186  140.8935  161.1006 C.ar    1  UNL1        0.1472
     28 N         138.5715  140.1005  162.3647 N.ar    1  UNL1       -0.1976
     29 N         137.9737  142.3247  161.1623 N.pl3   1  UNL1       -0.2961
     30 H         137.4128  142.6972  160.4441 H       1  UNL1        0.1537
     31 C         138.3834  143.1883  162.3182 C.ar    1  UNL1        0.0667
     32 C         137.4911  143.3085  163.5180 C.ar    1  UNL1        0.0159
     33 C         137.9008  144.1721  164.6739 C.ar    1  UNL1        0.0014
     34 C         139.2029  144.9156  164.6302 C.ar    1  UNL1        0.0014
     35 C         140.0952  144.7955  163.4304 C.ar    1  UNL1        0.0196
     36 C         139.6854  143.9318  162.2744 C.ar    1  UNL1        0.1189
     37 S         140.5777  143.8117  161.0747 S.O2    1  UNL1        0.0082
     38 O         139.6623  144.7155  160.3033 O.2     1  UNL1       -0.1686
     39 O         141.4932  142.9079  161.8461 O.2     1  UNL1       -0.1686
     40 C         141.4700  143.6915  159.8750 C.3     1  UNL1        0.1340
     41 C         142.9099  143.3075  160.0466 C.3     1  UNL1        0.0257
     42 C         140.9225  143.9554  158.5036 C.3     1  UNL1        0.0257
@<TRIPOS>BOND
     1     3     4    1
     2     4     5   ar
     3     5     6   ar
     4     6     1    1
     5     1    22    1
     6    22    23   ar
     7    23    24   ar
     8    24    25   ar
     9    25    26    1
    10    25    27   ar
    11    27    29    1
    12    29    31    1
    13    31    32   ar
    14    32    33   ar
    15    33    34   ar
    16    34    35   ar
    17    35    36   ar
    18    36    37    1
    19    37    38    2
    20    37    39    2
    21    37    40    1
    22    40    41    1
    23    40    42    1
    24    27    28   ar
    25     6     7   ar
    26     7    17    1
    27    17    18    1
    28    18    19    1
    29    19    20    1
    30    20    21    1
    31     7     8   ar
    32     8     9   ar
    33     9    10    1
    34    10    11    1
    35    11    12    1
    36    12    13    1
    37    13    14    1
    38    14    15    1
    39     9     4   ar
    40    15    10    1
    41    28    22   ar
    42    21    18    1
    43    36    31   ar
    44     1     2    1
    45    29    30    1
    46    13    16    1
