@<TRIPOS>MOLECULE
*****
 28 30 0 0 0
SMALL
GASTEIGER

@<TRIPOS>ATOM
      1 C         139.3023  139.8246  163.9761 C.ar    1  UNL1        0.1525
      2 C         140.3576  140.7129  164.5652 C.ar    1  UNL1        0.1337
      3 N         140.5028  140.8192  166.0544 N.ar    1  UNL1       -0.2316
      4 C         139.5926  140.0373  166.9544 C.ar    1  UNL1        0.1420
      5 C         138.5372  139.1491  166.3653 C.ar    1  UNL1        0.1508
      6 N         137.6270  138.3671  167.2654 N.pl3   1  UNL1       -0.3410
      7 N         138.3921  139.0427  164.8762 N.ar    1  UNL1       -0.2128
      8 H         137.7222  138.4369  168.2428 H       1  UNL1        0.1438
      9 H         136.9343  137.7841  166.8787 H       1  UNL1        0.1438
     10 C         139.4991  138.8110  158.3391 C.3     1  UNL1        0.0157
     11 C         138.8667  139.5056  159.5086 C.3     1  UNL1        0.0422
     12 N         138.0118  140.0372  158.3966 N.3     1  UNL1       -0.3231
     13 C         137.9374  140.3847  160.2919 C.3     1  UNL1        0.0357
     14 C         138.0826  140.4910  161.7811 C.3     1  UNL1        0.0935
     15 N         139.1571  139.7183  162.4870 N.pl3   1  UNL1       -0.2919
     16 C         140.0863  138.8391  161.7037 C.3     1  UNL1        0.0935
     17 C         139.9411  138.7328  160.2145 C.3     1  UNL1        0.0357
     18 H         137.3097  140.6699  158.7801 H       1  UNL1        0.1188
     19 H         137.5482  139.2615  157.9235 H       1  UNL1        0.1188
     20 S         139.7378  140.1437  168.4436 S.3     1  UNL1       -0.0644
     21 C         140.4872  141.2962  169.0437 C.ar    1  UNL1        0.0423
     22 C         139.7454  142.5188  169.4967 C.ar    1  UNL1        0.0074
     23 C         140.4947  143.6713  170.0968 C.ar    1  UNL1        0.0014
     24 C         141.9858  143.6013  170.2439 C.ar    1  UNL1        0.0123
     25 C         142.7276  142.3789  169.7909 C.ar    1  UNL1        0.0687
     26 CL        144.2188  142.3089  169.9380 Cl      1  UNL1       -0.0813
     27 C         141.9783  141.2263  169.1908 C.ar    1  UNL1        0.0742
     28 CL        142.7201  140.0038  168.7378 Cl      1  UNL1       -0.0808
@<TRIPOS>BOND
     1    10    11    1
     2    11    12    1
     3    11    13    1
     4    13    14    1
     5    14    15    1
     6    15     1    1
     7     1     2   ar
     8     2     3   ar
     9     3     4   ar
    10     4    20    1
    11    20    21    1
    12    21    22   ar
    13    22    23   ar
    14    23    24   ar
    15    24    25   ar
    16    25    26    1
    17    25    27   ar
    18    27    28    1
    19     4     5   ar
    20     5     6    1
    21     5     7   ar
    22    15    16    1
    23    16    17    1
    24    17    11    1
    25     7     1   ar
    26    27    21   ar
    27    12    18    1
    28    12    19    1
    29     6     8    1
    30     6     9    1
@<TRIPOS>MOLECULE
*****
 28 30 0 0 0
SMALL
GASTEIGER

@<TRIPOS>ATOM
      1 C         141.0275  144.7164  159.3269 C.ar    1  UNL1        0.1525
      2 C         142.2398  143.8350  159.2699 C.ar    1  UNL1        0.1337
      3 N         143.0845  143.6412  160.4942 N.ar    1  UNL1       -0.2316
      4 C         142.7168  144.3289  161.7756 C.ar    1  UNL1        0.1420
      5 C         141.5045  145.2103  161.8326 C.ar    1  UNL1        0.1508
      6 N         141.1367  145.8981  163.1139 N.pl3   1  UNL1       -0.3410
      7 N         140.6598  145.4041  160.6082 N.ar    1  UNL1       -0.2128
      8 H         141.6911  145.7709  163.9175 H       1  UNL1        0.1438
      9 H         140.3410  146.4766  163.1513 H       1  UNL1        0.1438
     10 C         137.6380  144.5046  154.7107 C.3     1  UNL1        0.0157
     11 C         138.4935  145.2976  155.6539 C.3     1  UNL1        0.0422
     12 N         138.0548  146.3874  154.7212 N.3     1  UNL1       -0.3231
     13 C         139.1965  146.4690  156.2731 C.3     1  UNL1        0.0357
     14 C         140.0412  146.2753  157.4974 C.3     1  UNL1        0.0935
     15 N         140.1828  144.9101  158.1025 N.pl3   1  UNL1       -0.2919
     16 C         139.4797  143.7387  157.4834 C.3     1  UNL1        0.0935
     17 C         138.6351  143.9325  156.2590 C.3     1  UNL1        0.0357
     18 H         138.4626  147.2739  155.0183 H       1  UNL1        0.1188
     19 H         137.0374  146.4591  154.7366 H       1  UNL1        0.1188
     20 S         143.5615  144.1352  162.9999 S.3     1  UNL1       -0.0644
     21 C         143.3798  142.9133  163.8508 C.ar    1  UNL1        0.0423
     22 C         142.2417  142.8404  164.8253 C.ar    1  UNL1        0.0074
     23 C         142.0601  141.6186  165.6762 C.ar    1  UNL1        0.0014
     24 C         143.0163  140.4696  165.5526 C.ar    1  UNL1        0.0123
     25 C         144.1543  140.5424  164.5781 C.ar    1  UNL1        0.0687
     26 CL        145.1106  139.3934  164.4545 Cl      1  UNL1       -0.0813
     27 C         144.3360  141.7643  163.7271 C.ar    1  UNL1        0.0742
     28 CL        145.4740  141.8371  162.7527 Cl      1  UNL1       -0.0808
@<TRIPOS>BOND
     1    10    11    1
     2    11    12    1
     3    11    13    1
     4    13    14    1
     5    14    15    1
     6    15     1    1
     7     1     2   ar
     8     2     3   ar
     9     3     4   ar
    10     4    20    1
    11    20    21    1
    12    21    22   ar
    13    22    23   ar
    14    23    24   ar
    15    24    25   ar
    16    25    26    1
    17    25    27   ar
    18    27    28    1
    19     4     5   ar
    20     5     6    1
    21     5     7   ar
    22    15    16    1
    23    16    17    1
    24    17    11    1
    25     7     1   ar
    26    27    21   ar
    27    12    18    1
    28    12    19    1
    29     6     8    1
    30     6     9    1
@<TRIPOS>MOLECULE
*****
 28 30 0 0 0
SMALL
GASTEIGER

@<TRIPOS>ATOM
      1 C         139.9827  139.1774  159.0809 C.ar    1  UNL1        0.1525
      2 C         141.4816  139.1203  159.0743 C.ar    1  UNL1        0.1337
      3 N         142.1961  138.2932  158.0470 N.ar    1  UNL1       -0.2316
      4 C         141.4118  137.5232  157.0263 C.ar    1  UNL1        0.1420
      5 C         139.9129  137.5803  157.0329 C.ar    1  UNL1        0.1508
      6 N         139.1284  136.8102  156.0122 N.pl3   1  UNL1       -0.3410
      7 N         139.1984  138.4074  158.0602 N.ar    1  UNL1       -0.2128
      8 H         139.5974  136.2674  155.3380 H       1  UNL1        0.1438
      9 H         138.1447  136.8477  156.0166 H       1  UNL1        0.1438
     10 C         137.7413  143.0820  162.6267 C.3     1  UNL1        0.0157
     11 C         137.8392  141.6588  162.1628 C.3     1  UNL1        0.0422
     12 N         136.8424  141.5030  163.2728 N.3     1  UNL1       -0.3231
     13 C         137.5910  140.1816  162.0844 C.3     1  UNL1        0.0357
     14 C         138.3055  139.3545  161.0571 C.3     1  UNL1        0.0935
     15 N         139.2682  140.0046  160.1082 N.pl3   1  UNL1       -0.2919
     16 C         139.5165  141.4818  160.1866 C.3     1  UNL1        0.0935
     17 C         138.8020  142.3089  161.2139 C.3     1  UNL1        0.0357
     18 H         136.5675  140.5236  163.3479 H       1  UNL1        0.1188
     19 H         136.0201  142.0726  163.0738 H       1  UNL1        0.1188
     20 S         142.1263  136.6960  155.9990 S.3     1  UNL1       -0.0644
     21 C         142.4458  135.2584  156.2837 C.ar    1  UNL1        0.0423
     22 C         143.3552  134.9034  157.4226 C.ar    1  UNL1        0.0074
     23 C         143.6747  133.4658  157.7073 C.ar    1  UNL1        0.0014
     24 C         143.0849  132.3831  156.8530 C.ar    1  UNL1        0.0123
     25 C         142.1755  132.7379  155.7141 C.ar    1  UNL1        0.0687
     26 CL        141.5857  131.6552  154.8599 Cl      1  UNL1       -0.0813
     27 C         141.8560  134.1756  155.4294 C.ar    1  UNL1        0.0742
     28 CL        140.9466  134.5305  154.2905 Cl      1  UNL1       -0.0808
@<TRIPOS>BOND
     1    10    11    1
     2    11    12    1
     3    11    13    1
     4    13    14    1
     5    14    15    1
     6    15     1    1
     7     1     2   ar
     8     2     3   ar
     9     3     4   ar
    10     4    20    1
    11    20    21    1
    12    21    22   ar
    13    22    23   ar
    14    23    24   ar
    15    24    25   ar
    16    25    26    1
    17    25    27   ar
    18    27    28    1
    19     4     5   ar
    20     5     6    1
    21     5     7   ar
    22    15    16    1
    23    16    17    1
    24    17    11    1
    25     7     1   ar
    26    27    21   ar
    27    12    18    1
    28    12    19    1
    29     6     8    1
    30     6     9    1
@<TRIPOS>MOLECULE
*****
 28 30 0 0 0
SMALL
GASTEIGER

@<TRIPOS>ATOM
      1 C         140.7559  144.3332  160.6897 C.ar    1  UNL1        0.1525
      2 C         141.7778  143.9640  161.7237 C.ar    1  UNL1        0.1337
      3 N         141.3576  143.7352  163.1453 N.ar    1  UNL1       -0.2316
      4 C         139.9154  143.8755  163.5329 C.ar    1  UNL1        0.1420
      5 C         138.8934  144.2447  162.4989 C.ar    1  UNL1        0.1508
      6 N         137.4511  144.3850  162.8865 N.pl3   1  UNL1       -0.3410
      7 N         139.3137  144.4735  161.0773 N.ar    1  UNL1       -0.2128
      8 H         137.1753  144.2348  163.8195 H       1  UNL1        0.1438
      9 H         136.7803  144.6273  162.2078 H       1  UNL1        0.1438
     10 C         141.5987  145.8014  155.2146 C.3     1  UNL1        0.0157
     11 C         142.0166  145.0198  156.4248 C.3     1  UNL1        0.0422
     12 N         143.0784  144.5888  155.4568 N.3     1  UNL1       -0.3231
     13 C         142.8033  144.0885  157.2988 C.3     1  UNL1        0.0357
     14 C         142.3830  143.8597  158.7204 C.3     1  UNL1        0.0935
     15 N         141.1761  144.5621  159.2680 N.pl3   1  UNL1       -0.2919
     16 C         140.3895  145.4933  158.3940 C.3     1  UNL1        0.0935
     17 C         140.8097  145.7222  156.9724 C.3     1  UNL1        0.0357
     18 H         143.7112  143.9336  155.9158 H       1  UNL1        0.1188
     19 H         143.6034  145.4049  155.1425 H       1  UNL1        0.1188
     20 S         139.4951  143.6467  164.9545 S.3     1  UNL1       -0.0644
     21 C         139.2979  142.2492  165.4626 C.ar    1  UNL1        0.0423
     22 C         138.3767  141.3114  164.7400 C.ar    1  UNL1        0.0074
     23 C         138.1795  139.9140  165.2480 C.ar    1  UNL1        0.0014
     24 C         138.9033  139.4542  166.4788 C.ar    1  UNL1        0.0123
     25 C         139.8244  140.3919  167.2014 C.ar    1  UNL1        0.0687
     26 CL        140.5482  139.9322  168.4321 Cl      1  UNL1       -0.0813
     27 C         140.0217  141.7895  166.6933 C.ar    1  UNL1        0.0742
     28 CL        140.9428  142.7272  167.4160 Cl      1  UNL1       -0.0808
@<TRIPOS>BOND
     1    10    11    1
     2    11    12    1
     3    11    13    1
     4    13    14    1
     5    14    15    1
     6    15     1    1
     7     1     2   ar
     8     2     3   ar
     9     3     4   ar
    10     4    20    1
    11    20    21    1
    12    21    22   ar
    13    22    23   ar
    14    23    24   ar
    15    24    25   ar
    16    25    26    1
    17    25    27   ar
    18    27    28    1
    19     4     5   ar
    20     5     6    1
    21     5     7   ar
    22    15    16    1
    23    16    17    1
    24    17    11    1
    25     7     1   ar
    26    27    21   ar
    27    12    18    1
    28    12    19    1
    29     6     8    1
    30     6     9    1
@<TRIPOS>MOLECULE
*****
 28 30 0 0 0
SMALL
GASTEIGER

@<TRIPOS>ATOM
      1 C         139.6647  140.3151  166.1863 C.ar    1  UNL1        0.1525
      2 C         140.2903  139.0539  165.6686 C.ar    1  UNL1        0.1337
      3 N         139.8181  138.4585  164.3754 N.ar    1  UNL1       -0.2316
      4 C         138.7202  139.1242  163.5999 C.ar    1  UNL1        0.1420
      5 C         138.0946  140.3853  164.1176 C.ar    1  UNL1        0.1508
      6 N         136.9967  141.0511  163.3420 N.pl3   1  UNL1       -0.3410
      7 N         138.5668  140.9808  165.4108 N.ar    1  UNL1       -0.2128
      8 H         136.6867  140.6603  162.4932 H       1  UNL1        0.1438
      9 H         136.5860  141.8788  163.6818 H       1  UNL1        0.1438
     10 C         142.0917  143.0856  170.5768 C.3     1  UNL1        0.0157
     11 C         141.0814  142.1015  170.0660 C.3     1  UNL1        0.0422
     12 N         140.7946  142.0297  171.5366 N.3     1  UNL1       -0.3231
     13 C         139.9715  141.0925  170.0659 C.3     1  UNL1        0.0357
     14 C         139.4993  140.4970  168.7727 C.3     1  UNL1        0.0935
     15 N         140.1369  140.9105  167.4795 N.pl3   1  UNL1       -0.2919
     16 C         141.2468  141.9195  167.4796 C.3     1  UNL1        0.0935
     17 C         141.7190  142.5150  168.7728 C.3     1  UNL1        0.0357
     18 H         140.0395  141.3647  171.7037 H       1  UNL1        0.1188
     19 H         140.5169  142.9513  171.8742 H       1  UNL1        0.1188
     20 S         138.2480  138.5287  162.3066 S.3     1  UNL1       -0.0644
     21 C         138.7216  139.0974  161.0019 C.ar    1  UNL1        0.0423
     22 C         137.8030  139.9504  160.1780 C.ar    1  UNL1        0.0074
     23 C         138.2765  140.5190  158.8733 C.ar    1  UNL1        0.0014
     24 C         139.6687  140.2348  158.3925 C.ar    1  UNL1        0.0123
     25 C         140.5872  139.3819  159.2163 C.ar    1  UNL1        0.0687
     26 CL        141.9793  139.0977  158.7354 Cl      1  UNL1       -0.0813
     27 C         140.1137  138.8132  160.5211 C.ar    1  UNL1        0.0742
     28 CL        141.0322  137.9603  161.3449 Cl      1  UNL1       -0.0808
@<TRIPOS>BOND
     1    10    11    1
     2    11    12    1
     3    11    13    1
     4    13    14    1
     5    14    15    1
     6    15     1    1
     7     1     2   ar
     8     2     3   ar
     9     3     4   ar
    10     4    20    1
    11    20    21    1
    12    21    22   ar
    13    22    23   ar
    14    23    24   ar
    15    24    25   ar
    16    25    26    1
    17    25    27   ar
    18    27    28    1
    19     4     5   ar
    20     5     6    1
    21     5     7   ar
    22    15    16    1
    23    16    17    1
    24    17    11    1
    25     7     1   ar
    26    27    21   ar
    27    12    18    1
    28    12    19    1
    29     6     8    1
    30     6     9    1
@<TRIPOS>MOLECULE
*****
 28 30 0 0 0
SMALL
GASTEIGER

@<TRIPOS>ATOM
      1 C         140.0475  141.8655  166.6022 C.ar    1  UNL1        0.1525
      2 C         140.3063  143.2701  166.1441 C.ar    1  UNL1        0.1337
      3 N         139.6205  143.7978  164.9189 N.ar    1  UNL1       -0.2316
      4 C         138.6758  142.9209  164.1518 C.ar    1  UNL1        0.1420
      5 C         138.4169  141.5162  164.6099 C.ar    1  UNL1        0.1508
      6 N         137.4722  140.6392  163.8428 N.pl3   1  UNL1       -0.3410
      7 N         139.1028  140.9885  165.8351 N.ar    1  UNL1       -0.2128
      8 H         137.0220  140.9855  163.0387 H       1  UNL1        0.1438
      9 H         137.3023  139.7173  164.1435 H       1  UNL1        0.1438
     10 C         143.0395  139.1830  170.6880 C.3     1  UNL1        0.0157
     11 C         142.1051  140.2824  170.2778 C.3     1  UNL1        0.0422
     12 N         142.2214  140.5732  171.7448 N.3     1  UNL1       -0.3231
     13 C         141.2110  141.4827  170.3770 C.3     1  UNL1        0.0357
     14 C         140.5252  142.0104  169.1518 C.3     1  UNL1        0.0935
     15 N         140.7333  141.3378  167.8274 N.pl3   1  UNL1       -0.2919
     16 C         141.6274  140.1374  167.7282 C.3     1  UNL1        0.0935
     17 C         142.3132  139.6097  168.9534 C.3     1  UNL1        0.0357
     18 H         141.6526  141.3877  171.9761 H       1  UNL1        0.1188
     19 H         143.1963  140.7621  171.9777 H       1  UNL1        0.1188
     20 S         137.9899  143.4486  162.9266 S.3     1  UNL1       -0.0644
     21 C         138.6641  143.3535  161.5900 C.ar    1  UNL1        0.0423
     22 C         138.3976  142.1777  160.6975 C.ar    1  UNL1        0.0074
     23 C         139.0717  142.0826  159.3609 C.ar    1  UNL1        0.0014
     24 C         140.0124  143.1633  158.9168 C.ar    1  UNL1        0.0123
     25 C         140.2790  144.3390  159.8093 C.ar    1  UNL1        0.0687
     26 CL        141.2197  145.4197  159.3652 Cl      1  UNL1       -0.0813
     27 C         139.6048  144.4342  161.1459 C.ar    1  UNL1        0.0742
     28 CL        139.8713  145.6099  162.0384 Cl      1  UNL1       -0.0808
@<TRIPOS>BOND
     1    10    11    1
     2    11    12    1
     3    11    13    1
     4    13    14    1
     5    14    15    1
     6    15     1    1
     7     1     2   ar
     8     2     3   ar
     9     3     4   ar
    10     4    20    1
    11    20    21    1
    12    21    22   ar
    13    22    23   ar
    14    23    24   ar
    15    24    25   ar
    16    25    26    1
    17    25    27   ar
    18    27    28    1
    19     4     5   ar
    20     5     6    1
    21     5     7   ar
    22    15    16    1
    23    16    17    1
    24    17    11    1
    25     7     1   ar
    26    27    21   ar
    27    12    18    1
    28    12    19    1
    29     6     8    1
    30     6     9    1
@<TRIPOS>MOLECULE
*****
 28 30 0 0 0
SMALL
GASTEIGER

@<TRIPOS>ATOM
      1 C         140.7518  140.0777  166.6439 C.ar    1  UNL1        0.1525
      2 C         141.5307  138.9404  166.0525 C.ar    1  UNL1        0.1337
      3 N         141.0273  138.2466  164.8216 N.ar    1  UNL1       -0.2316
      4 C         139.7450  138.6900  164.1821 C.ar    1  UNL1        0.1420
      5 C         138.9660  139.8272  164.7735 C.ar    1  UNL1        0.1508
      6 N         137.6836  140.2707  164.1341 N.pl3   1  UNL1       -0.3410
      7 N         139.4694  140.5211  166.0045 N.ar    1  UNL1       -0.2128
      8 H         137.3532  139.8153  163.3262 H       1  UNL1        0.1438
      9 H         137.1724  141.0171  164.5223 H       1  UNL1        0.1438
     10 C         143.2443  143.2197  170.7375 C.3     1  UNL1        0.0157
     11 C         142.2620  142.1593  170.3367 C.3     1  UNL1        0.0422
     12 N         142.0509  142.1619  171.8218 N.3     1  UNL1       -0.3231
     13 C         141.2064  141.0998  170.4516 C.3     1  UNL1        0.0357
     14 C         140.7030  140.4060  169.2207 C.3     1  UNL1        0.0935
     15 N         141.2552  140.7716  167.8748 N.pl3   1  UNL1       -0.2919
     16 C         142.3108  141.8310  167.7599 C.3     1  UNL1        0.0935
     17 C         142.8141  142.5249  168.9908 C.3     1  UNL1        0.0357
     18 H         141.3397  141.4725  172.0654 H       1  UNL1        0.1188
     19 H         141.7432  143.0876  172.1198 H       1  UNL1        0.1188
     20 S         139.2416  137.9961  162.9512 S.3     1  UNL1       -0.0644
     21 C         139.8120  138.3436  161.6081 C.ar    1  UNL1        0.0423
     22 C         141.2483  138.0384  161.3015 C.ar    1  UNL1        0.0074
     23 C         141.8187  138.3859  159.9584 C.ar    1  UNL1        0.0014
     24 C         140.9528  139.0385  158.9219 C.ar    1  UNL1        0.0123
     25 C         139.5165  139.3436  159.2284 C.ar    1  UNL1        0.0687
     26 CL        138.6507  139.9962  158.1919 Cl      1  UNL1       -0.0813
     27 C         138.9461  138.9962  160.5716 C.ar    1  UNL1        0.0742
     28 CL        137.5098  139.3013  160.8781 Cl      1  UNL1       -0.0808
@<TRIPOS>BOND
     1    10    11    1
     2    11    12    1
     3    11    13    1
     4    13    14    1
     5    14    15    1
     6    15     1    1
     7     1     2   ar
     8     2     3   ar
     9     3     4   ar
    10     4    20    1
    11    20    21    1
    12    21    22   ar
    13    22    23   ar
    14    23    24   ar
    15    24    25   ar
    16    25    26    1
    17    25    27   ar
    18    27    28    1
    19     4     5   ar
    20     5     6    1
    21     5     7   ar
    22    15    16    1
    23    16    17    1
    24    17    11    1
    25     7     1   ar
    26    27    21   ar
    27    12    18    1
    28    12    19    1
    29     6     8    1
    30     6     9    1
@<TRIPOS>MOLECULE
*****
 28 30 0 0 0
SMALL
GASTEIGER

@<TRIPOS>ATOM
      1 C         141.4147  142.4874  166.3133 C.ar    1  UNL1        0.1525
      2 C         142.3100  142.6083  165.1159 C.ar    1  UNL1        0.1337
      3 N         141.8926  143.4541  163.9496 N.ar    1  UNL1       -0.2316
      4 C         140.5798  144.1790  163.9805 C.ar    1  UNL1        0.1420
      5 C         139.6844  144.0581  165.1779 C.ar    1  UNL1        0.1508
      6 N         138.3716  144.7830  165.2089 N.pl3   1  UNL1       -0.3410
      7 N         140.1019  143.2123  166.3442 N.ar    1  UNL1       -0.2128
      8 H         138.0976  145.3382  164.4434 H       1  UNL1        0.1438
      9 H         137.7839  144.7037  165.9947 H       1  UNL1        0.1438
     10 C         142.8784  138.5084  170.1691 C.3     1  UNL1        0.0157
     11 C         142.6669  139.9500  169.8123 C.3     1  UNL1        0.0422
     12 N         143.0949  140.0957  171.2426 N.3     1  UNL1       -0.3231
     13 C         142.6041  141.4421  169.9523 C.3     1  UNL1        0.0357
     14 C         142.1866  142.2879  168.7859 C.3     1  UNL1        0.0935
     15 N         141.8321  141.6416  167.4796 N.pl3   1  UNL1       -0.2919
     16 C         141.8949  140.1495  167.3396 C.3     1  UNL1        0.0935
     17 C         142.3123  139.3037  168.5060 C.3     1  UNL1        0.0357
     18 H         143.1027  141.0836  171.4962 H       1  UNL1        0.1188
     19 H         144.0311  139.7076  171.3586 H       1  UNL1        0.1188
     20 S         140.1624  145.0248  162.8142 S.3     1  UNL1       -0.0644
     21 C         140.2583  144.4797  161.4200 C.ar    1  UNL1        0.0423
     22 C         141.3647  144.9306  160.5129 C.ar    1  UNL1        0.0074
     23 C         141.4606  144.3855  159.1188 C.ar    1  UNL1        0.0014
     24 C         140.4503  143.3896  158.6317 C.ar    1  UNL1        0.0123
     25 C         139.3439  142.9387  159.5387 C.ar    1  UNL1        0.0687
     26 CL        138.3335  141.9428  159.0516 Cl      1  UNL1       -0.0813
     27 C         139.2480  143.4838  160.9329 C.ar    1  UNL1        0.0742
     28 CL        138.1416  143.0330  161.8400 Cl      1  UNL1       -0.0808
@<TRIPOS>BOND
     1    10    11    1
     2    11    12    1
     3    11    13    1
     4    13    14    1
     5    14    15    1
     6    15     1    1
     7     1     2   ar
     8     2     3   ar
     9     3     4   ar
    10     4    20    1
    11    20    21    1
    12    21    22   ar
    13    22    23   ar
    14    23    24   ar
    15    24    25   ar
    16    25    26    1
    17    25    27   ar
    18    27    28    1
    19     4     5   ar
    20     5     6    1
    21     5     7   ar
    22    15    16    1
    23    16    17    1
    24    17    11    1
    25     7     1   ar
    26    27    21   ar
    27    12    18    1
    28    12    19    1
    29     6     8    1
    30     6     9    1
@<TRIPOS>MOLECULE
*****
 28 30 0 0 0
SMALL
GASTEIGER

@<TRIPOS>ATOM
      1 C         140.1379  140.5970  165.2450 C.ar    1  UNL1        0.1525
      2 C         141.1628  140.6936  164.1540 C.ar    1  UNL1        0.1337
      3 N         140.7395  141.0315  162.7552 N.ar    1  UNL1       -0.2316
      4 C         139.2914  141.2727  162.4473 C.ar    1  UNL1        0.1420
      5 C         138.2666  141.1761  163.5383 C.ar    1  UNL1        0.1508
      6 N         136.8184  141.4173  163.2305 N.pl3   1  UNL1       -0.3410
      7 N         138.6898  140.8382  164.9371 N.ar    1  UNL1       -0.2128
      8 H         136.5406  141.6391  162.3124 H       1  UNL1        0.1438
      9 H         136.1458  141.3539  163.9466 H       1  UNL1        0.1438
     10 C         142.6307  139.1654  170.2026 C.3     1  UNL1        0.0157
     11 C         141.4076  139.5834  169.4415 C.3     1  UNL1        0.0422
     12 N         140.8330  139.4836  170.8235 N.3     1  UNL1       -0.3231
     13 C         139.9850  139.9667  169.1602 C.3     1  UNL1        0.0357
     14 C         139.5618  140.3045  167.7614 C.3     1  UNL1        0.0935
     15 N         140.5611  140.2591  166.6438 N.pl3   1  UNL1       -0.2919
     16 C         141.9838  139.8758  166.9250 C.3     1  UNL1        0.0935
     17 C         142.4070  139.5379  168.3238 C.3     1  UNL1        0.0357
     18 H         139.8415  139.7219  170.7974 H       1  UNL1        0.1188
     19 H         141.3219  140.1303  171.4424 H       1  UNL1        0.1188
     20 S         138.8682  141.6106  161.0485 S.3     1  UNL1       -0.0644
     21 C         139.3621  142.8691  160.3988 C.ar    1  UNL1        0.0423
     22 C         139.7694  144.0395  161.2440 C.ar    1  UNL1        0.0074
     23 C         140.2633  145.2980  160.5943 C.ar    1  UNL1        0.0014
     24 C         140.3498  145.3863  159.0994 C.ar    1  UNL1        0.0123
     25 C         139.9425  144.2160  158.2542 C.ar    1  UNL1        0.0687
     26 CL        140.0290  144.3042  156.7593 Cl      1  UNL1       -0.0813
     27 C         139.4486  142.9573  158.9039 C.ar    1  UNL1        0.0742
     28 CL        139.0413  141.7870  158.0587 Cl      1  UNL1       -0.0808
@<TRIPOS>BOND
     1    10    11    1
     2    11    12    1
     3    11    13    1
     4    13    14    1
     5    14    15    1
     6    15     1    1
     7     1     2   ar
     8     2     3   ar
     9     3     4   ar
    10     4    20    1
    11    20    21    1
    12    21    22   ar
    13    22    23   ar
    14    23    24   ar
    15    24    25   ar
    16    25    26    1
    17    25    27   ar
    18    27    28    1
    19     4     5   ar
    20     5     6    1
    21     5     7   ar
    22    15    16    1
    23    16    17    1
    24    17    11    1
    25     7     1   ar
    26    27    21   ar
    27    12    18    1
    28    12    19    1
    29     6     8    1
    30     6     9    1
