@<TRIPOS>MOLECULE
*****
 35 39 0 0 0
SMALL
GASTEIGER

@<TRIPOS>ATOM
      1 C         138.8575  138.5761  164.9688 C.ar    1  UNL1        0.0536
      2 C         139.8715  137.5878  164.4738 C.ar    1  UNL1        0.0042
      3 C         140.1823  137.5020  163.0089 C.ar    1  UNL1       -0.0041
      4 C         139.4791  138.4045  162.0388 C.ar    1  UNL1       -0.0208
      5 C         138.4650  139.3929  162.5338 C.ar    1  UNL1       -0.0041
      6 C         138.1543  139.4787  163.9988 C.ar    1  UNL1        0.0042
      7 C         140.4717  142.4753  169.2333 C.3     1  UNL1        0.1025
      8 C         139.6394  141.2317  169.1296 C.3     1  UNL1        0.0327
      9 C         138.8900  139.9973  168.7237 C.3     1  UNL1        0.0943
     10 N         139.1121  139.7820  167.2559 N.am    1  UNL1       -0.2761
     11 C         138.5468  138.6620  166.4337 C.2     1  UNL1        0.2490
     12 O         137.6707  137.6279  167.0764 O.2     1  UNL1       -0.2699
     13 C         139.9988  140.8832  166.7548 C.3     1  UNL1        0.0943
     14 C         140.3247  141.7791  167.9128 C.3     1  UNL1        0.0327
     15 C         141.0370  143.5953  170.0555 C.2     1  UNL1        0.3165
     16 O         140.2157  144.8233  170.3158 O.2     1  UNL1       -0.2501
     17 O         142.4235  143.4873  170.6175 O.3     1  UNL1       -0.4485
     18 C         143.3942  141.1298  170.1173 C.3     1  UNL1        0.0513
     19 C         143.4417  142.6186  169.9402 C.3     1  UNL1        0.2086
     20 C         139.7898  138.3186  160.5739 C.3     1  UNL1        0.0420
     21 C         140.9881  139.0297  160.0185 C.3     1  UNL1        0.0585
     22 C         141.5874  138.8183  158.6598 C.3     1  UNL1        0.0175
     23 C         142.7672  139.7349  158.5258 C.3     1  UNL1        0.0199
     24 C         142.8971  140.5127  159.8017 C.3     1  UNL1        0.0855
     25 N         141.7975  140.0769  160.7243 N.3     1  UNL1       -0.2971
     26 H         141.2049  140.8737  160.9572 H       1  UNL1        0.1233
     27 C         143.9428  141.5452  160.1024 C.3     1  UNL1        0.1470
     28 O         144.6774  142.2175  158.9806 O.3     1  UNL1       -0.3787
     29 H         145.3134  142.8526  159.3454 H       1  UNL1        0.2108
     30 C         144.2540  141.9054  161.5249 C.ar    1  UNL1        0.0055
     31 C         143.9451  143.2817  162.0350 C.ar    1  UNL1       -0.0019
     32 C         144.2563  143.6418  163.4575 C.ar    1  UNL1       -0.0002
     33 C         144.8765  142.6255  164.3699 C.ar    1  UNL1       -0.0000
     34 C         145.1854  141.2491  163.8598 C.ar    1  UNL1       -0.0002
     35 C         144.8742  140.8891  162.4373 C.ar    1  UNL1       -0.0019
@<TRIPOS>BOND
     1    18    19    1
     2    19    17    1
     3    17    15    1
     4    15    16    2
     5     7    15    1
     6     7     8    1
     7     8     9    1
     8     9    10    1
     9    10    11   am
    10    11    12    2
    11    11     1    1
    12     1     2   ar
    13     2     3   ar
    14     3     4   ar
    15     4    20    1
    16    21    20    1
    17    21    22    1
    18    22    23    1
    19    24    23    1
    20    24    27    1
    21    27    28    1
    22    27    30    1
    23    30    31   ar
    24    31    32   ar
    25    32    33   ar
    26    33    34   ar
    27    34    35   ar
    28    24    25    1
    29     4     5   ar
    30     5     6   ar
    31    10    13    1
    32    14    13    1
    33    14     7    1
    34    14     8    1
    35     6     1   ar
    36    25    21    1
    37    35    30   ar
    38    28    29    1
    39    25    26    1
@<TRIPOS>MOLECULE
*****
 35 39 0 0 0
SMALL
GASTEIGER

@<TRIPOS>ATOM
      1 C         143.9103  139.1419  164.6136 C.ar    1  UNL1        0.0536
      2 C         142.9290  138.5516  163.6449 C.ar    1  UNL1        0.0042
      3 C         142.9277  138.9979  162.2128 C.ar    1  UNL1       -0.0041
      4 C         143.9078  140.0347  161.7494 C.ar    1  UNL1       -0.0208
      5 C         144.8891  140.6250  162.7183 C.ar    1  UNL1       -0.0041
      6 C         144.8904  140.1787  164.1503 C.ar    1  UNL1        0.0042
      7 C         140.2213  140.2593  169.2111 C.3     1  UNL1        0.1025
      8 C         141.4736  139.4713  168.9644 C.3     1  UNL1        0.0327
      9 C         142.6982  138.7933  168.4254 C.3     1  UNL1        0.0943
     10 N         142.8278  139.1549  166.9754 N.am    1  UNL1       -0.2761
     11 C         143.9116  138.6956  166.0456 C.2     1  UNL1        0.2490
     12 O         144.9968  137.7900  166.5480 O.2     1  UNL1       -0.2699
     13 C         141.6833  140.0563  166.6183 C.3     1  UNL1        0.0943
     14 C         140.8463  140.2519  167.8476 C.3     1  UNL1        0.0327
     15 C         139.1375  140.7186  170.1409 C.2     1  UNL1        0.3165
     16 O         138.0372  139.7775  170.5331 O.2     1  UNL1       -0.2501
     17 O         139.1538  142.1189  170.6783 O.3     1  UNL1       -0.4485
     18 C         140.2087  144.3999  170.0192 C.3     1  UNL1        0.0513
     19 C         140.3650  142.9824  170.4845 C.3     1  UNL1        0.2086
     20 C         143.9065  140.4810  160.3174 C.3     1  UNL1        0.0420
     21 C         143.1212  141.6924  159.9101 C.3     1  UNL1        0.0585
     22 C         143.3740  142.5408  158.6992 C.3     1  UNL1        0.0175
     23 C         142.3544  143.6408  158.6829 C.3     1  UNL1        0.0199
     24 C         141.4715  143.4723  159.8837 C.3     1  UNL1        0.0855
     25 N         141.9454  142.2681  160.6422 N.3     1  UNL1       -0.2971
     26 H         141.1980  141.5761  160.6952 H       1  UNL1        0.1233
     27 C         140.3173  144.3533  160.2601 C.3     1  UNL1        0.1470
     28 O         139.7341  145.2974  159.2508 O.3     1  UNL1       -0.3787
     29 H         139.0011  145.7888  159.6535 H       1  UNL1        0.2108
     30 C         139.7462  144.2902  161.6457 C.ar    1  UNL1        0.0055
     31 C         138.4221  143.6263  161.8818 C.ar    1  UNL1       -0.0019
     32 C         137.8511  143.5632  163.2674 C.ar    1  UNL1       -0.0002
     33 C         138.6043  144.1640  164.4170 C.ar    1  UNL1       -0.0000
     34 C         139.9285  144.8280  164.1810 C.ar    1  UNL1       -0.0002
     35 C         140.4995  144.8910  162.7953 C.ar    1  UNL1       -0.0019
@<TRIPOS>BOND
     1    18    19    1
     2    19    17    1
     3    17    15    1
     4    15    16    2
     5     7    15    1
     6     7     8    1
     7     8     9    1
     8     9    10    1
     9    10    11   am
    10    11    12    2
    11    11     1    1
    12     1     2   ar
    13     2     3   ar
    14     3     4   ar
    15     4    20    1
    16    21    20    1
    17    21    22    1
    18    22    23    1
    19    24    23    1
    20    24    27    1
    21    27    28    1
    22    27    30    1
    23    30    31   ar
    24    31    32   ar
    25    32    33   ar
    26    33    34   ar
    27    34    35   ar
    28    24    25    1
    29     4     5   ar
    30     5     6   ar
    31    10    13    1
    32    14    13    1
    33    14     7    1
    34    14     8    1
    35     6     1   ar
    36    25    21    1
    37    35    30   ar
    38    28    29    1
    39    25    26    1
@<TRIPOS>MOLECULE
*****
 35 39 0 0 0
SMALL
GASTEIGER

@<TRIPOS>ATOM
      1 C         142.4782  139.0111  163.6237 C.ar    1  UNL1        0.0536
      2 C         142.6139  140.1947  162.7123 C.ar    1  UNL1        0.0042
      3 C         142.0450  140.1426  161.3254 C.ar    1  UNL1       -0.0041
      4 C         141.3401  138.9068  160.8499 C.ar    1  UNL1       -0.0208
      5 C         141.2044  137.7232  161.7613 C.ar    1  UNL1       -0.0041
      6 C         141.7733  137.7753  163.1482 C.ar    1  UNL1        0.0042
      7 C         140.0489  140.2995  168.9560 C.3     1  UNL1        0.1025
      8 C         141.3942  139.9103  168.4188 C.3     1  UNL1        0.0327
      9 C         142.5918  139.5189  167.6049 C.3     1  UNL1        0.0943
     10 N         142.1666  139.4263  166.1694 N.am    1  UNL1       -0.2761
     11 C         143.0471  139.0633  165.0106 C.2     1  UNL1        0.2490
     12 O         144.4967  138.7523  165.2388 O.2     1  UNL1       -0.2699
     13 C         140.7061  139.7606  166.0961 C.3     1  UNL1        0.0943
     14 C         140.2288  140.0598  167.4863 C.3     1  UNL1        0.0327
     15 C         139.1683  140.6626  170.1148 C.2     1  UNL1        0.3165
     16 O         137.9568  139.8340  170.4246 O.2     1  UNL1       -0.2501
     17 O         139.4992  141.8541  170.9638 O.3     1  UNL1       -0.4485
     18 C         141.4396  143.3092  170.0325 C.3     1  UNL1        0.0513
     19 C         139.9798  143.1219  170.3221 C.3     1  UNL1        0.2086
     20 C         140.7712  138.8547  159.4629 C.3     1  UNL1        0.0420
     21 C         141.6772  138.6320  158.2885 C.3     1  UNL1        0.0585
     22 C         142.2210  139.6949  157.3805 C.3     1  UNL1        0.0175
     23 C         143.0784  139.0272  156.3466 C.3     1  UNL1        0.0199
     24 C         143.0647  137.5516  156.6156 C.3     1  UNL1        0.0855
     25 N         142.1986  137.3074  157.8158 N.3     1  UNL1       -0.2971
     26 H         142.7472  136.8676  158.5548 H       1  UNL1        0.1233
     27 C         143.7896  136.5042  155.8236 C.3     1  UNL1        0.1470
     28 O         145.1262  136.8136  155.2173 O.3     1  UNL1       -0.3787
     29 H         145.4541  136.0339  154.7424 H       1  UNL1        0.2108
     30 C         143.1777  135.1472  155.6378 C.ar    1  UNL1        0.0055
     31 C         142.4590  134.8165  154.3635 C.ar    1  UNL1       -0.0019
     32 C         141.8472  133.4596  154.1778 C.ar    1  UNL1       -0.0002
     33 C         141.9542  132.4334  155.2665 C.ar    1  UNL1       -0.0000
     34 C         142.6729  132.7640  156.5409 C.ar    1  UNL1       -0.0002
     35 C         143.2847  134.1210  156.7266 C.ar    1  UNL1       -0.0019
@<TRIPOS>BOND
     1    18    19    1
     2    19    17    1
     3    17    15    1
     4    15    16    2
     5     7    15    1
     6     7     8    1
     7     8     9    1
     8     9    10    1
     9    10    11   am
    10    11    12    2
    11    11     1    1
    12     1     2   ar
    13     2     3   ar
    14     3     4   ar
    15     4    20    1
    16    21    20    1
    17    21    22    1
    18    22    23    1
    19    24    23    1
    20    24    27    1
    21    27    28    1
    22    27    30    1
    23    30    31   ar
    24    31    32   ar
    25    32    33   ar
    26    33    34   ar
    27    34    35   ar
    28    24    25    1
    29     4     5   ar
    30     5     6   ar
    31    10    13    1
    32    14    13    1
    33    14     7    1
    34    14     8    1
    35     6     1   ar
    36    25    21    1
    37    35    30   ar
    38    28    29    1
    39    25    26    1
@<TRIPOS>MOLECULE
*****
 35 39 0 0 0
SMALL
GASTEIGER

@<TRIPOS>ATOM
      1 C         139.6021  138.4374  164.4416 C.ar    1  UNL1        0.0536
      2 C         140.8822  137.7097  164.1557 C.ar    1  UNL1        0.0042
      3 C         141.4328  137.6801  162.7608 C.ar    1  UNL1       -0.0041
      4 C         140.7032  138.3783  161.6516 C.ar    1  UNL1       -0.0208
      5 C         139.4231  139.1060  161.9375 C.ar    1  UNL1       -0.0041
      6 C         138.8725  139.1356  163.3324 C.ar    1  UNL1        0.0042
      7 C         140.3920  142.2189  169.0320 C.3     1  UNL1        0.1025
      8 C         139.6195  140.9635  168.7537 C.3     1  UNL1        0.0327
      9 C         138.9784  139.7295  168.1915 C.3     1  UNL1        0.0943
     10 N         139.4452  139.5689  166.7751 N.am    1  UNL1       -0.2761
     11 C         139.0515  138.4670  165.8366 C.2     1  UNL1        0.2490
     12 O         138.1073  137.3946  166.2931 O.2     1  UNL1       -0.2699
     13 C         140.3748  140.7037  166.4619 C.3     1  UNL1        0.0943
     14 C         140.4826  141.5656  167.6847 C.3     1  UNL1        0.0327
     15 C         140.7857  143.3208  169.9705 C.2     1  UNL1        0.3165
     16 O         139.7396  144.2389  170.5301 O.2     1  UNL1       -0.2501
     17 O         142.2253  143.5047  170.3493 O.3     1  UNL1       -0.4485
     18 C         144.7121  142.7823  170.1396 C.3     1  UNL1        0.0513
     19 C         143.2593  142.5340  169.8607 C.3     1  UNL1        0.2086
     20 C         141.2538  138.3487  160.2566 C.3     1  UNL1        0.0420
     21 C         141.8766  139.5807  159.6699 C.3     1  UNL1        0.0585
     22 C         142.6626  139.6492  158.3941 C.3     1  UNL1        0.0175
     23 C         143.0945  141.0713  158.1916 C.3     1  UNL1        0.0199
     24 C         142.5756  141.8817  159.3422 C.3     1  UNL1        0.0855
     25 N         141.8228  140.9605  160.2558 N.3     1  UNL1       -0.2971
     26 H         140.8528  141.2661  160.3331 H       1  UNL1        0.1233
     27 C         142.7744  143.3548  159.5438 C.3     1  UNL1        0.1470
     28 O         143.2139  144.2161  158.3972 O.3     1  UNL1       -0.3787
     29 H         143.2939  145.1356  158.6956 H       1  UNL1        0.2108
     30 C         142.5337  143.9664  160.8922 C.ar    1  UNL1        0.0055
     31 C         143.5586  143.8173  161.9772 C.ar    1  UNL1       -0.0019
     32 C         143.3178  144.4290  163.3255 C.ar    1  UNL1       -0.0002
     33 C         142.0521  145.1897  163.5888 C.ar    1  UNL1       -0.0000
     34 C         141.0272  145.3388  162.5037 C.ar    1  UNL1       -0.0002
     35 C         141.2680  144.7271  161.1554 C.ar    1  UNL1       -0.0019
@<TRIPOS>BOND
     1    18    19    1
     2    19    17    1
     3    17    15    1
     4    15    16    2
     5     7    15    1
     6     7     8    1
     7     8     9    1
     8     9    10    1
     9    10    11   am
    10    11    12    2
    11    11     1    1
    12     1     2   ar
    13     2     3   ar
    14     3     4   ar
    15     4    20    1
    16    21    20    1
    17    21    22    1
    18    22    23    1
    19    24    23    1
    20    24    27    1
    21    27    28    1
    22    27    30    1
    23    30    31   ar
    24    31    32   ar
    25    32    33   ar
    26    33    34   ar
    27    34    35   ar
    28    24    25    1
    29     4     5   ar
    30     5     6   ar
    31    10    13    1
    32    14    13    1
    33    14     7    1
    34    14     8    1
    35     6     1   ar
    36    25    21    1
    37    35    30   ar
    38    28    29    1
    39    25    26    1
@<TRIPOS>MOLECULE
*****
 35 39 0 0 0
SMALL
GASTEIGER

@<TRIPOS>ATOM
      1 C         139.8982  141.5274  162.1505 C.ar    1  UNL1        0.0536
      2 C         141.3287  141.6129  161.7075 C.ar    1  UNL1        0.0042
      3 C         141.8063  142.8106  160.9411 C.ar    1  UNL1       -0.0041
      4 C         140.8533  143.9230  160.6177 C.ar    1  UNL1       -0.0208
      5 C         139.4228  143.8375  161.0607 C.ar    1  UNL1       -0.0041
      6 C         138.9452  142.6398  161.8271 C.ar    1  UNL1        0.0042
      7 C         139.6169  140.3189  168.0203 C.3     1  UNL1        0.1025
      8 C         139.2746  139.6311  166.7321 C.3     1  UNL1        0.0327
      9 C         139.0391  139.2073  165.3126 C.3     1  UNL1        0.0943
     10 N         139.4783  140.3265  164.4158 N.am    1  UNL1       -0.2761
     11 C         139.4206  140.3297  162.9169 C.2     1  UNL1        0.2490
     12 O         138.8853  139.1352  162.1844 O.2     1  UNL1       -0.2699
     13 C         139.9853  141.4421  165.2809 C.3     1  UNL1        0.0943
     14 C         139.8594  141.0123  166.7125 C.3     1  UNL1        0.0327
     15 C         139.6746  140.3157  169.5192 C.2     1  UNL1        0.3165
     16 O         138.7532  141.1992  170.3071 O.2     1  UNL1       -0.2501
     17 O         140.6536  139.4292  170.2303 O.3     1  UNL1       -0.4485
     18 C         142.8925  140.6317  169.6907 C.3     1  UNL1        0.0513
     19 C         142.0818  139.3725  169.7752 C.3     1  UNL1        0.2086
     20 C         141.3309  145.1207  159.8513 C.3     1  UNL1        0.0420
     21 C         140.9214  145.3077  158.4205 C.3     1  UNL1        0.0585
     22 C         141.5207  144.6129  157.2338 C.3     1  UNL1        0.0175
     23 C         140.8104  145.0981  156.0051 C.3     1  UNL1        0.0199
     24 C         139.7720  146.0928  156.4322 C.3     1  UNL1        0.0855
     25 N         139.8406  146.2223  157.9250 N.3     1  UNL1       -0.2971
     26 H         138.9462  145.9563  158.3370 H       1  UNL1        0.1233
     27 C         138.8304  146.8287  155.5257 C.3     1  UNL1        0.1470
     28 O         137.6951  146.0987  154.8713 O.3     1  UNL1       -0.3787
     29 H         137.1871  146.7164  154.3224 H       1  UNL1        0.2108
     30 C         139.0240  148.2946  155.2737 C.ar    1  UNL1        0.0055
     31 C         139.7365  148.7554  154.0368 C.ar    1  UNL1       -0.0019
     32 C         139.9301  150.2214  153.7848 C.ar    1  UNL1       -0.0002
     33 C         139.4112  151.2266  154.7699 C.ar    1  UNL1       -0.0000
     34 C         138.6987  150.7658  156.0068 C.ar    1  UNL1       -0.0002
     35 C         138.5051  149.2999  156.2587 C.ar    1  UNL1       -0.0019
@<TRIPOS>BOND
     1    18    19    1
     2    19    17    1
     3    17    15    1
     4    15    16    2
     5     7    15    1
     6     7     8    1
     7     8     9    1
     8     9    10    1
     9    10    11   am
    10    11    12    2
    11    11     1    1
    12     1     2   ar
    13     2     3   ar
    14     3     4   ar
    15     4    20    1
    16    21    20    1
    17    21    22    1
    18    22    23    1
    19    24    23    1
    20    24    27    1
    21    27    28    1
    22    27    30    1
    23    30    31   ar
    24    31    32   ar
    25    32    33   ar
    26    33    34   ar
    27    34    35   ar
    28    24    25    1
    29     4     5   ar
    30     5     6   ar
    31    10    13    1
    32    14    13    1
    33    14     7    1
    34    14     8    1
    35     6     1   ar
    36    25    21    1
    37    35    30   ar
    38    28    29    1
    39    25    26    1
@<TRIPOS>MOLECULE
*****
 35 39 0 0 0
SMALL
GASTEIGER

@<TRIPOS>ATOM
      1 C         140.1954  139.1087  163.6339 C.ar    1  UNL1        0.0536
      2 C         141.5228  138.4978  163.2951 C.ar    1  UNL1        0.0042
      3 C         142.1479  138.7567  161.9563 C.ar    1  UNL1       -0.0041
      4 C         141.4455  139.6265  160.9563 C.ar    1  UNL1       -0.0208
      5 C         140.1180  140.2374  161.2951 C.ar    1  UNL1       -0.0041
      6 C         139.4930  139.9786  162.6338 C.ar    1  UNL1        0.0042
      7 C         140.4410  142.0475  168.8586 C.3     1  UNL1        0.1025
      8 C         139.7849  140.8136  168.3137 C.3     1  UNL1        0.0327
      9 C         139.2731  139.6605  167.5023 C.3     1  UNL1        0.0943
     10 N         139.8261  139.7890  166.1139 N.am    1  UNL1       -0.2761
     11 C         139.5704  138.8498  164.9726 C.2     1  UNL1        0.2490
     12 O         138.6897  137.6518  165.1700 O.2     1  UNL1       -0.2699
     13 C         140.6797  141.0215  166.0672 C.3     1  UNL1        0.0943
     14 C         140.6543  141.6548  167.4267 C.3     1  UNL1        0.0327
     15 C         140.6967  142.9867  169.9999 C.2     1  UNL1        0.3165
     16 O         139.8680  144.2280  170.1499 O.2     1  UNL1       -0.2501
     17 O         141.7811  142.6845  170.9913 O.3     1  UNL1       -0.4485
     18 C         144.0610  142.4476  169.7683 C.3     1  UNL1        0.0513
     19 C         142.9563  141.8455  170.5850 C.3     1  UNL1        0.2086
     20 C         142.0705  139.8854  159.6175 C.3     1  UNL1        0.0420
     21 C         142.0331  138.8272  158.5551 C.3     1  UNL1        0.0585
     22 C         140.7999  138.2742  157.9045 C.3     1  UNL1        0.0175
     23 C         141.2270  137.2414  156.9041 C.3     1  UNL1        0.0199
     24 C         142.7241  137.1560  156.9364 C.3     1  UNL1        0.0855
     25 N         143.2224  138.1361  157.9568 N.3     1  UNL1       -0.2971
     26 H         143.8322  138.8209  157.5101 H       1  UNL1        0.1233
     27 C         143.5739  136.2496  156.0959 C.3     1  UNL1        0.1470
     28 O         144.8709  136.7482  155.5311 O.3     1  UNL1       -0.3787
     29 H         145.2922  136.0420  155.0164 H       1  UNL1        0.2108
     30 C         143.1265  134.8446  155.8203 C.ar    1  UNL1        0.0055
     31 C         142.6814  134.4560  154.4416 C.ar    1  UNL1       -0.0019
     32 C         142.2341  133.0510  154.1660 C.ar    1  UNL1       -0.0002
     33 C         142.2318  132.0347  155.2692 C.ar    1  UNL1       -0.0000
     34 C         142.6769  132.4233  156.6479 C.ar    1  UNL1       -0.0002
     35 C         143.1243  133.8283  156.9234 C.ar    1  UNL1       -0.0019
@<TRIPOS>BOND
     1    18    19    1
     2    19    17    1
     3    17    15    1
     4    15    16    2
     5     7    15    1
     6     7     8    1
     7     8     9    1
     8     9    10    1
     9    10    11   am
    10    11    12    2
    11    11     1    1
    12     1     2   ar
    13     2     3   ar
    14     3     4   ar
    15     4    20    1
    16    21    20    1
    17    21    22    1
    18    22    23    1
    19    24    23    1
    20    24    27    1
    21    27    28    1
    22    27    30    1
    23    30    31   ar
    24    31    32   ar
    25    32    33   ar
    26    33    34   ar
    27    34    35   ar
    28    24    25    1
    29     4     5   ar
    30     5     6   ar
    31    10    13    1
    32    14    13    1
    33    14     7    1
    34    14     8    1
    35     6     1   ar
    36    25    21    1
    37    35    30   ar
    38    28    29    1
    39    25    26    1
@<TRIPOS>MOLECULE
*****
 35 39 0 0 0
SMALL
GASTEIGER

@<TRIPOS>ATOM
      1 C         138.2236  139.2741  162.1544 C.ar    1  UNL1        0.0536
      2 C         137.8895  140.5056  162.9430 C.ar    1  UNL1        0.0042
      3 C         138.0059  140.4932  164.4384 C.ar    1  UNL1       -0.0041
      4 C         138.4563  139.2493  165.1453 C.ar    1  UNL1       -0.0208
      5 C         138.7904  138.0177  164.3568 C.ar    1  UNL1       -0.0041
      6 C         138.6740  138.0301  162.8613 C.ar    1  UNL1        0.0042
      7 C         142.2851  138.7634  157.7683 C.3     1  UNL1        0.1025
      8 C         140.8011  138.9480  157.8852 C.3     1  UNL1        0.0327
      9 C         139.3737  139.1259  158.3105 C.3     1  UNL1        0.0943
     10 N         139.3343  139.1329  159.8100 N.am    1  UNL1       -0.2761
     11 C         138.1073  139.2865  160.6590 C.2     1  UNL1        0.2490
     12 O         136.7639  139.4525  160.0126 O.2     1  UNL1       -0.2699
     13 C         140.7373  138.9593  160.3114 C.3     1  UNL1        0.0943
     14 C         141.6438  138.8450  159.1218 C.3     1  UNL1        0.0327
     15 C         143.5121  138.6098  156.9192 C.2     1  UNL1        0.3165
     16 O         144.4567  139.7629  156.7507 O.2     1  UNL1       -0.2501
     17 O         143.7945  137.3033  156.2387 O.3     1  UNL1       -0.4485
     18 C         142.9680  135.3700  154.7125 C.3     1  UNL1        0.0513
     19 C         142.6704  136.5120  155.6383 C.3     1  UNL1        0.2086
     20 C         138.5726  139.2369  166.6408 C.3     1  UNL1        0.0420
     21 C         139.6575  140.0232  167.3151 C.3     1  UNL1        0.0585
     22 C         139.7340  140.3446  168.7783 C.3     1  UNL1        0.0175
     23 C         140.9801  141.1462  169.0122 C.3     1  UNL1        0.0199
     24 C         141.6738  141.3201  167.6937 C.3     1  UNL1        0.0855
     25 N         140.8563  140.6260  166.6448 N.3     1  UNL1       -0.2971
     26 H         141.4109  139.8929  166.2027 H       1  UNL1        0.1233
     27 C         142.9591  142.0584  167.4643 C.3     1  UNL1        0.1470
     28 O         143.6976  142.6570  168.6246 O.3     1  UNL1       -0.3787
     29 H         144.5018  143.0951  168.3047 H       1  UNL1        0.2108
     30 C         143.5060  142.1981  166.0745 C.ar    1  UNL1        0.0055
     31 C         143.9132  140.9781  165.3026 C.ar    1  UNL1       -0.0019
     32 C         144.4601  141.1179  163.9128 C.ar    1  UNL1       -0.0002
     33 C         144.5998  142.4776  163.2950 C.ar    1  UNL1       -0.0000
     34 C         144.1927  143.6975  164.0670 C.ar    1  UNL1       -0.0002
     35 C         143.6458  143.5578  165.4567 C.ar    1  UNL1       -0.0019
@<TRIPOS>BOND
     1    18    19    1
     2    19    17    1
     3    17    15    1
     4    15    16    2
     5     7    15    1
     6     7     8    1
     7     8     9    1
     8     9    10    1
     9    10    11   am
    10    11    12    2
    11    11     1    1
    12     1     2   ar
    13     2     3   ar
    14     3     4   ar
    15     4    20    1
    16    21    20    1
    17    21    22    1
    18    22    23    1
    19    24    23    1
    20    24    27    1
    21    27    28    1
    22    27    30    1
    23    30    31   ar
    24    31    32   ar
    25    32    33   ar
    26    33    34   ar
    27    34    35   ar
    28    24    25    1
    29     4     5   ar
    30     5     6   ar
    31    10    13    1
    32    14    13    1
    33    14     7    1
    34    14     8    1
    35     6     1   ar
    36    25    21    1
    37    35    30   ar
    38    28    29    1
    39    25    26    1
@<TRIPOS>MOLECULE
*****
 35 39 0 0 0
SMALL
GASTEIGER

@<TRIPOS>ATOM
      1 C         138.2554  140.3926  159.6299 C.ar    1  UNL1        0.0536
      2 C         137.8814  139.3279  160.6181 C.ar    1  UNL1        0.0042
      3 C         137.7252  139.6732  162.0695 C.ar    1  UNL1       -0.0041
      4 C         137.9430  141.0831  162.5327 C.ar    1  UNL1       -0.0208
      5 C         138.3170  142.1479  161.5444 C.ar    1  UNL1       -0.0041
      6 C         138.4732  141.8026  160.0931 C.ar    1  UNL1        0.0042
      7 C         142.4560  137.3479  156.6168 C.3     1  UNL1        0.1025
      8 C         141.1746  138.0641  156.3085 C.3     1  UNL1        0.0327
      9 C         139.8887  138.8364  156.3087 C.3     1  UNL1        0.0943
     10 N         139.5994  139.2545  157.7199 N.am    1  UNL1       -0.2761
     11 C         138.4116  140.0474  158.1786 C.2     1  UNL1        0.2490
     12 O         137.3799  140.4950  157.1860 O.2     1  UNL1       -0.2699
     13 C         140.7065  138.7407  158.5918 C.3     1  UNL1        0.0943
     14 C         141.6800  138.0049  157.7195 C.3     1  UNL1        0.0327
     15 C         143.6438  136.5550  156.1580 C.2     1  UNL1        0.3165
     16 O         144.8498  137.2595  155.6107 O.2     1  UNL1       -0.2501
     17 O         143.6258  135.0578  156.2466 O.3     1  UNL1       -0.4485
     18 C         141.6365  134.2955  154.7595 C.3     1  UNL1        0.0513
     19 C         142.3337  134.3126  156.0875 C.3     1  UNL1        0.2086
     20 C         137.7868  141.4284  163.9840 C.3     1  UNL1        0.0420
     21 C         138.7657  140.8998  164.9902 C.3     1  UNL1        0.0585
     22 C         138.4759  139.8789  166.0502 C.3     1  UNL1        0.0175
     23 C         139.7373  139.6475  166.8281 C.3     1  UNL1        0.0199
     24 C         140.8067  140.5255  166.2490 C.3     1  UNL1        0.0855
     25 N         140.2062  141.2995  165.1130 N.3     1  UNL1       -0.2971
     26 H         140.7005  141.0832  164.2474 H       1  UNL1        0.1233
     27 C         142.2273  140.6139  166.7226 C.3     1  UNL1        0.1470
     28 O         142.5596  140.3219  168.1558 O.3     1  UNL1       -0.3787
     29 H         143.5143  140.4240  168.2936 H       1  UNL1        0.2108
     30 C         143.3155  140.9944  165.7628 C.ar    1  UNL1        0.0055
     31 C         143.9914  139.9391  164.9385 C.ar    1  UNL1       -0.0019
     32 C         145.0795  140.3196  163.9788 C.ar    1  UNL1       -0.0002
     33 C         145.4918  141.7555  163.8433 C.ar    1  UNL1       -0.0000
     34 C         144.8159  142.8108  164.6676 C.ar    1  UNL1       -0.0002
     35 C         143.7277  142.4302  165.6273 C.ar    1  UNL1       -0.0019
@<TRIPOS>BOND
     1    18    19    1
     2    19    17    1
     3    17    15    1
     4    15    16    2
     5     7    15    1
     6     7     8    1
     7     8     9    1
     8     9    10    1
     9    10    11   am
    10    11    12    2
    11    11     1    1
    12     1     2   ar
    13     2     3   ar
    14     3     4   ar
    15     4    20    1
    16    21    20    1
    17    21    22    1
    18    22    23    1
    19    24    23    1
    20    24    27    1
    21    27    28    1
    22    27    30    1
    23    30    31   ar
    24    31    32   ar
    25    32    33   ar
    26    33    34   ar
    27    34    35   ar
    28    24    25    1
    29     4     5   ar
    30     5     6   ar
    31    10    13    1
    32    14    13    1
    33    14     7    1
    34    14     8    1
    35     6     1   ar
    36    25    21    1
    37    35    30   ar
    38    28    29    1
    39    25    26    1
@<TRIPOS>MOLECULE
*****
 35 39 0 0 0
SMALL
GASTEIGER

@<TRIPOS>ATOM
      1 C         142.7296  138.4438  160.4272 C.ar    1  UNL1        0.0536
      2 C         141.9967  137.7812  161.5558 C.ar    1  UNL1        0.0042
      3 C         142.4312  138.0151  162.9723 C.ar    1  UNL1       -0.0041
      4 C         143.5987  138.9118  163.2602 C.ar    1  UNL1       -0.0208
      5 C         144.3317  139.5745  162.1316 C.ar    1  UNL1       -0.0041
      6 C         143.8971  139.3405  160.7151 C.ar    1  UNL1        0.0042
      7 C         138.0874  140.4855  157.2215 C.3     1  UNL1        0.1025
      8 C         139.2635  139.5787  157.0105 C.3     1  UNL1        0.0327
      9 C         140.5042  138.7403  157.0986 C.3     1  UNL1        0.0943
     10 N         141.0593  138.8782  158.4852 N.am    1  UNL1       -0.2761
     11 C         142.2950  138.2098  159.0108 C.2     1  UNL1        0.2490
     12 O         143.0963  137.3075  158.1198 O.2     1  UNL1       -0.2699
     13 C         140.1616  139.8018  159.2542 C.3     1  UNL1        0.0943
     14 C         139.0518  140.2347  158.3427 C.3     1  UNL1        0.0327
     15 C         136.8516  141.1538  156.6960 C.2     1  UNL1        0.3165
     16 O         136.8611  142.6253  156.4043 O.2     1  UNL1       -0.2501
     17 O         135.6064  140.3509  156.4621 O.3     1  UNL1       -0.4485
     18 C         134.4249  140.9079  154.2163 C.3     1  UNL1        0.0513
     19 C         134.4540  140.9545  155.7153 C.3     1  UNL1        0.2086
     20 C         144.0333  139.1458  164.6767 C.3     1  UNL1        0.0420
     21 C         143.0967  139.7972  165.6506 C.3     1  UNL1        0.0585
     22 C         142.8651  139.3718  167.0703 C.3     1  UNL1        0.0175
     23 C         141.8526  140.3000  167.6729 C.3     1  UNL1        0.0199
     24 C         141.4584  141.2990  166.6258 C.3     1  UNL1        0.0855
     25 N         142.2273  140.9882  165.3759 N.3     1  UNL1       -0.2971
     26 H         142.8064  141.7873  165.1180 H       1  UNL1        0.1233
     27 C         140.4690  142.4132  166.7982 C.3     1  UNL1        0.1470
     28 O         140.3750  143.1367  168.1088 O.3     1  UNL1       -0.3787
     29 H         139.6913  143.8223  168.0513 H       1  UNL1        0.2108
     30 C         139.5736  142.8039  165.6599 C.ar    1  UNL1        0.0055
     31 C         138.6761  141.7822  165.0268 C.ar    1  UNL1       -0.0019
     32 C         137.7808  142.1730  163.8885 C.ar    1  UNL1       -0.0002
     33 C         137.7829  143.5854  163.3834 C.ar    1  UNL1       -0.0000
     34 C         138.6803  144.6070  164.0165 C.ar    1  UNL1       -0.0002
     35 C         139.5757  144.2162  165.1548 C.ar    1  UNL1       -0.0019
@<TRIPOS>BOND
     1    18    19    1
     2    19    17    1
     3    17    15    1
     4    15    16    2
     5     7    15    1
     6     7     8    1
     7     8     9    1
     8     9    10    1
     9    10    11   am
    10    11    12    2
    11    11     1    1
    12     1     2   ar
    13     2     3   ar
    14     3     4   ar
    15     4    20    1
    16    21    20    1
    17    21    22    1
    18    22    23    1
    19    24    23    1
    20    24    27    1
    21    27    28    1
    22    27    30    1
    23    30    31   ar
    24    31    32   ar
    25    32    33   ar
    26    33    34   ar
    27    34    35   ar
    28    24    25    1
    29     4     5   ar
    30     5     6   ar
    31    10    13    1
    32    14    13    1
    33    14     7    1
    34    14     8    1
    35     6     1   ar
    36    25    21    1
    37    35    30   ar
    38    28    29    1
    39    25    26    1
