@<TRIPOS>MOLECULE
*****
 38 43 0 0 0
SMALL
GASTEIGER

@<TRIPOS>ATOM
      1 C         141.8609  138.3437  159.7680 C.3     1  UNL1        0.0930
      2 C         141.0159  139.5304  159.4105 C.3     1  UNL1        0.0427
      3 C         140.3542  140.0227  160.6634 C.3     1  UNL1        0.0927
      4 N         140.7902  139.1402  161.7953 N.pl3   1  UNL1       -0.3033
      5 C         141.7214  138.1026  161.2419 C.3     1  UNL1        0.1104
      6 C         140.3690  139.2722  163.2289 C.ar    1  UNL1        0.0878
      7 C         139.2636  138.4134  163.7680 C.ar    1  UNL1        0.1543
      8 F         138.5794  137.4226  162.8735 F       1  UNL1       -0.2028
      9 C         138.8425  138.5455  165.2015 C.ar    1  UNL1        0.0356
     10 C         139.5267  139.5363  166.0960 C.ar    1  UNL1        0.0580
     11 C         139.1054  139.6683  167.5297 C.ar    1  UNL1        0.1996
     12 O         138.0001  138.8095  168.0687 O.2     1  UNL1       -0.2864
     13 C         139.7896  140.6591  168.4242 C.ar    1  UNL1        0.0701
     14 C         140.8951  141.5179  167.8851 C.ar    1  UNL1        0.0801
     15 N         141.3162  141.3859  166.4515 N.ar    1  UNL1       -0.3270
     16 C         140.6320  140.3951  165.5570 C.ar    1  UNL1        0.0750
     17 C         141.0532  140.2630  164.1234 C.ar    1  UNL1        0.0890
     18 CL        142.1586  141.1219  163.5843 Cl      1  UNL1       -0.0794
     19 C         139.3685  140.7911  169.8577 C.2     1  UNL1        0.0774
     20 O         139.1932  139.5651  170.7039 O.co2   1  UNL1       -0.5444
     21 O         139.1225  142.1493  170.4452 O.co2   1  UNL1       -0.5444
     22 C         142.4216  142.2447  165.9124 C.3     1  UNL1        0.0857
     23 C         142.8731  143.4276  165.1081 C.3     1  UNL1        0.0245
     24 C         143.8846  142.5493  165.7830 C.3     1  UNL1        0.0245
     25 O         140.6741  137.3405  157.2018 O.2     1  UNL1       -0.2730
     26 C         142.1049  137.0378  157.5353 C.2     1  UNL1        0.2456
     27 N         142.6983  137.5394  158.8184 N.am    1  UNL1       -0.3026
     28 H         143.6374  137.3407  159.0373 H       1  UNL1        0.1495
     29 C         142.9423  136.2334  156.5857 C.3     1  UNL1        0.1929
     30 N         142.5382  134.8332  156.2305 N.ar    1  UNL1       -0.3004
     31 C         141.3924  134.4443  155.3441 C.ar    1  UNL1        0.1789
     32 N         141.3549  132.9468  155.2652 N.ar    1  UNL1       -0.2239
     33 C         142.4776  132.4104  156.1028 C.ar    1  UNL1        0.0988
     34 C         142.9285  131.0108  156.3995 C.ar    1  UNL1        0.0206
     35 C         144.1106  130.7771  157.2926 C.ar    1  UNL1        0.0016
     36 C         144.8420  131.9430  157.8893 C.ar    1  UNL1        0.0016
     37 C         144.3911  133.3426  157.5927 C.ar    1  UNL1        0.0188
     38 C         143.2089  133.5762  156.6995 C.ar    1  UNL1        0.0793
@<TRIPOS>UNITY_ATOM_ATTR
20 1
charge -1
@<TRIPOS>BOND
     1    25    26    2
     2    26    29    1
     3    29    30    1
     4    30    31   ar
     5    31    32   ar
     6    32    33   ar
     7    33    34   ar
     8    34    35   ar
     9    35    36   ar
    10    36    37   ar
    11    37    38   ar
    12    26    27   am
    13    27     1    1
    14     1     2    1
    15     2     3    1
    16     3     4    1
    17     4     6    1
    18     6     7   ar
    19     7     8    1
    20     7     9   ar
    21     9    10   ar
    22    10    11   ar
    23    11    12    2
    24    11    13   ar
    25    13    19    1
    26    19    20   ar
    27    19    21   ar
    28    13    14   ar
    29    14    15   ar
    30    15    22    1
    31    22    23    1
    32    23    24    1
    33    15    16   ar
    34    16    17   ar
    35    17    18    1
    36     4     5    1
    37    38    30   ar
    38     5     1    1
    39    38    33   ar
    40    17     6   ar
    41    16    10   ar
    42    24    22    1
    43    27    28    1
@<TRIPOS>MOLECULE
*****
 38 43 0 0 0
SMALL
GASTEIGER

@<TRIPOS>ATOM
      1 C         140.7220  138.8041  159.1246 C.3     1  UNL1        0.0930
      2 C         140.1923  140.2038  159.0218 C.3     1  UNL1        0.0427
      3 C         139.8040  140.6548  160.3987 C.3     1  UNL1        0.0927
      4 N         140.0936  139.5339  161.3525 N.pl3   1  UNL1       -0.3033
      5 C         140.6609  138.3902  160.5650 C.3     1  UNL1        0.1104
      6 C         139.8574  139.5533  162.8337 C.ar    1  UNL1        0.0878
      7 C         138.7222  138.7693  163.4224 C.ar    1  UNL1        0.1543
      8 F         137.8232  137.9659  162.5301 F       1  UNL1       -0.2028
      9 C         138.4860  138.7888  164.9036 C.ar    1  UNL1        0.0356
     10 C         139.3850  139.5922  165.7959 C.ar    1  UNL1        0.0580
     11 C         139.1487  139.6116  167.2771 C.ar    1  UNL1        0.1996
     12 O         138.0136  138.8276  167.8659 O.2     1  UNL1       -0.2864
     13 C         140.0477  140.4151  168.1695 C.ar    1  UNL1        0.0701
     14 C         141.1829  141.1991  167.5807 C.ar    1  UNL1        0.0801
     15 N         141.4191  141.1797  166.0995 N.ar    1  UNL1       -0.3270
     16 C         140.5201  140.3762  165.2072 C.ar    1  UNL1        0.0750
     17 C         140.7563  140.3568  163.7260 C.ar    1  UNL1        0.0890
     18 CL        141.8915  141.1408  163.1372 Cl      1  UNL1       -0.0794
     19 C         139.8115  140.4345  169.6506 C.2     1  UNL1        0.0774
     20 O         138.8906  141.4557  170.2499 O.co2   1  UNL1       -0.5444
     21 O         140.4963  139.4328  170.5325 O.co2   1  UNL1       -0.5444
     22 C         142.5543  141.9637  165.5108 C.3     1  UNL1        0.0857
     23 C         143.0752  143.2209  164.8799 C.3     1  UNL1        0.0245
     24 C         143.9994  142.0645  165.1219 C.3     1  UNL1        0.0245
     25 O         143.6546  138.7301  158.4967 O.2     1  UNL1       -0.2730
     26 C         142.6907  137.9287  157.6728 C.2     1  UNL1        0.2456
     27 N         141.2244  137.9658  157.9868 N.am    1  UNL1       -0.3026
     28 H         140.5917  137.4398  157.4461 H       1  UNL1        0.1495
     29 C         143.1931  137.0903  156.5350 C.3     1  UNL1        0.1929
     30 N         142.9659  135.6076  156.5385 N.ar    1  UNL1       -0.3004
     31 C         143.2947  134.6679  157.6604 C.ar    1  UNL1        0.1789
     32 N         142.9020  133.2838  157.2360 N.ar    1  UNL1       -0.2239
     33 C         142.3307  133.3681  155.8517 C.ar    1  UNL1        0.0988
     34 C         141.7795  132.3227  154.9279 C.ar    1  UNL1        0.0206
     35 C         141.2678  132.7134  153.5732 C.ar    1  UNL1        0.0016
     36 C         141.3073  134.1497  153.1421 C.ar    1  UNL1        0.0016
     37 C         141.8584  135.1951  154.0658 C.ar    1  UNL1        0.0188
     38 C         142.3701  134.8043  155.4206 C.ar    1  UNL1        0.0793
@<TRIPOS>UNITY_ATOM_ATTR
20 1
charge -1
@<TRIPOS>BOND
     1    25    26    2
     2    26    29    1
     3    29    30    1
     4    30    31   ar
     5    31    32   ar
     6    32    33   ar
     7    33    34   ar
     8    34    35   ar
     9    35    36   ar
    10    36    37   ar
    11    37    38   ar
    12    26    27   am
    13    27     1    1
    14     1     2    1
    15     2     3    1
    16     3     4    1
    17     4     6    1
    18     6     7   ar
    19     7     8    1
    20     7     9   ar
    21     9    10   ar
    22    10    11   ar
    23    11    12    2
    24    11    13   ar
    25    13    19    1
    26    19    20   ar
    27    19    21   ar
    28    13    14   ar
    29    14    15   ar
    30    15    22    1
    31    22    23    1
    32    23    24    1
    33    15    16   ar
    34    16    17   ar
    35    17    18    1
    36     4     5    1
    37    38    30   ar
    38     5     1    1
    39    38    33   ar
    40    17     6   ar
    41    16    10   ar
    42    24    22    1
    43    27    28    1
@<TRIPOS>MOLECULE
*****
 38 43 0 0 0
SMALL
GASTEIGER

@<TRIPOS>ATOM
      1 C         140.5349  138.7433  160.6470 C.3     1  UNL1        0.0930
      2 C         139.2516  138.1587  161.1584 C.3     1  UNL1        0.0427
      3 C         139.1883  138.4019  162.6372 C.3     1  UNL1        0.0927
      4 N         140.4324  139.1369  163.0397 N.pl3   1  UNL1       -0.3033
      5 C         141.2647  139.3478  161.8097 C.3     1  UNL1        0.1104
      6 C         140.7828  139.5826  164.4285 C.ar    1  UNL1        0.0878
      7 C         141.5420  138.6659  165.3413 C.ar    1  UNL1        0.1543
      8 F         141.9509  137.3034  164.8653 F       1  UNL1       -0.2028
      9 C         141.8924  139.1117  166.7299 C.ar    1  UNL1        0.0356
     10 C         141.4835  140.4741  167.2059 C.ar    1  UNL1        0.0580
     11 C         141.8339  140.9199  168.5947 C.ar    1  UNL1        0.1996
     12 O         142.5931  140.0031  169.5074 O.2     1  UNL1       -0.2864
     13 C         141.4250  142.2823  169.0706 C.ar    1  UNL1        0.0701
     14 C         140.6657  143.1990  168.1577 C.ar    1  UNL1        0.0801
     15 N         140.3154  142.7533  166.7691 N.ar    1  UNL1       -0.3270
     16 C         140.7243  141.3908  166.2931 C.ar    1  UNL1        0.0750
     17 C         140.3739  140.9451  164.9044 C.ar    1  UNL1        0.0890
     18 CL        139.6146  141.8618  163.9916 Cl      1  UNL1       -0.0794
     19 C         141.7754  142.7281  170.4593 C.2     1  UNL1        0.0774
     20 O         140.9575  142.2595  171.6261 O.co2   1  UNL1       -0.5444
     21 O         142.9436  143.6425  170.6812 O.co2   1  UNL1       -0.5444
     22 C         139.5562  143.6700  165.8563 C.3     1  UNL1        0.0857
     23 C         138.2546  144.2452  165.3819 C.3     1  UNL1        0.0245
     24 C         139.5426  144.6826  164.7498 C.3     1  UNL1        0.0245
     25 O         142.9728  137.1664  159.8919 O.2     1  UNL1       -0.2730
     26 C         142.2247  137.9379  158.8453 C.2     1  UNL1        0.2456
     27 N         141.0058  138.7263  159.2229 N.am    1  UNL1       -0.3026
     28 H         140.5148  139.2327  158.5360 H       1  UNL1        0.1495
     29 C         142.6955  137.9209  157.4212 C.3     1  UNL1        0.1929
     30 N         142.1200  136.9305  156.4527 N.ar    1  UNL1       -0.3004
     31 C         141.1952  137.2456  155.3145 C.ar    1  UNL1        0.1789
     32 N         140.8718  135.9611  154.6108 N.ar    1  UNL1       -0.2239
     33 C         141.5967  134.8521  155.3140 C.ar    1  UNL1        0.0988
     34 C         141.6541  133.3740  155.0649 C.ar    1  UNL1        0.0206
     35 C         142.4827  132.4952  155.9541 C.ar    1  UNL1        0.0016
     36 C         143.2542  133.0943  157.0926 C.ar    1  UNL1        0.0016
     37 C         143.1969  134.5724  157.3417 C.ar    1  UNL1        0.0188
     38 C         142.3681  135.4512  156.4524 C.ar    1  UNL1        0.0793
@<TRIPOS>UNITY_ATOM_ATTR
20 1
charge -1
@<TRIPOS>BOND
     1    25    26    2
     2    26    29    1
     3    29    30    1
     4    30    31   ar
     5    31    32   ar
     6    32    33   ar
     7    33    34   ar
     8    34    35   ar
     9    35    36   ar
    10    36    37   ar
    11    37    38   ar
    12    26    27   am
    13    27     1    1
    14     1     2    1
    15     2     3    1
    16     3     4    1
    17     4     6    1
    18     6     7   ar
    19     7     8    1
    20     7     9   ar
    21     9    10   ar
    22    10    11   ar
    23    11    12    2
    24    11    13   ar
    25    13    19    1
    26    19    20   ar
    27    19    21   ar
    28    13    14   ar
    29    14    15   ar
    30    15    22    1
    31    22    23    1
    32    23    24    1
    33    15    16   ar
    34    16    17   ar
    35    17    18    1
    36     4     5    1
    37    38    30   ar
    38     5     1    1
    39    38    33   ar
    40    17     6   ar
    41    16    10   ar
    42    24    22    1
    43    27    28    1
@<TRIPOS>MOLECULE
*****
 38 43 0 0 0
SMALL
GASTEIGER

@<TRIPOS>ATOM
      1 C         143.0014  140.0765  160.8362 C.3     1  UNL1        0.0930
      2 C         144.0435  139.1437  161.3785 C.3     1  UNL1        0.0427
      3 C         144.0948  139.3209  162.8671 C.3     1  UNL1        0.0927
      4 N         143.0845  140.3632  163.2449 N.pl3   1  UNL1       -0.3033
      5 C         142.4087  140.8302  161.9898 C.3     1  UNL1        0.1104
      6 C         142.7998  140.8526  164.6340 C.ar    1  UNL1        0.0878
      7 C         143.7811  141.7493  165.3290 C.ar    1  UNL1        0.1543
      8 F         145.0470  142.1565  164.6351 F       1  UNL1       -0.2028
      9 C         143.4964  142.2387  166.7180 C.ar    1  UNL1        0.0356
     10 C         142.2305  141.8314  167.4120 C.ar    1  UNL1        0.0580
     11 C         141.9458  142.3209  168.8011 C.ar    1  UNL1        0.1996
     12 O         142.9271  143.2175  169.4961 O.2     1  UNL1       -0.2864
     13 C         140.6799  141.9137  169.4950 C.ar    1  UNL1        0.0701
     14 C         139.6986  141.0170  168.7999 C.ar    1  UNL1        0.0801
     15 N         139.9833  140.5276  167.4109 N.ar    1  UNL1       -0.3270
     16 C         141.2492  140.9348  166.7169 C.ar    1  UNL1        0.0750
     17 C         141.5339  140.4454  165.3279 C.ar    1  UNL1        0.0890
     18 CL        140.5526  139.5488  164.6328 Cl      1  UNL1       -0.0794
     19 C         140.3952  142.4031  170.8841 C.2     1  UNL1        0.0774
     20 O         139.2306  143.3147  171.1341 O.co2   1  UNL1       -0.5444
     21 O         141.2752  141.9809  172.0231 O.co2   1  UNL1       -0.5444
     22 C         139.0020  139.6310  166.7158 C.3     1  UNL1        0.0857
     23 C         137.9769  139.4114  165.6430 C.3     1  UNL1        0.0245
     24 C         138.3274  138.2977  166.5847 C.3     1  UNL1        0.0245
     25 O         140.8021  138.3941  159.6816 O.2     1  UNL1       -0.2730
     26 C         141.5195  139.3876  158.8165 C.2     1  UNL1        0.2456
     27 N         142.6191  140.2288  159.3938 N.am    1  UNL1       -0.3026
     28 H         143.0899  140.8808  158.8260 H       1  UNL1        0.1495
     29 C         141.1372  139.5400  157.3740 C.3     1  UNL1        0.1929
     30 N         140.7888  138.3301  156.5587 N.ar    1  UNL1       -0.3004
     31 C         139.4205  137.9634  156.0654 C.ar    1  UNL1        0.1789
     32 N         139.5335  136.6812  155.2953 N.ar    1  UNL1       -0.2239
     33 C         140.9716  136.2554  155.3126 C.ar    1  UNL1        0.0988
     34 C         141.6751  135.0713  154.7183 C.ar    1  UNL1        0.0206
     35 C         143.1542  134.9063  154.9047 C.ar    1  UNL1        0.0016
     36 C         143.9301  135.9254  155.6856 C.ar    1  UNL1        0.0016
     37 C         143.2267  137.1095  156.2799 C.ar    1  UNL1        0.0188
     38 C         141.7475  137.2744  156.0934 C.ar    1  UNL1        0.0793
@<TRIPOS>UNITY_ATOM_ATTR
20 1
charge -1
@<TRIPOS>BOND
     1    25    26    2
     2    26    29    1
     3    29    30    1
     4    30    31   ar
     5    31    32   ar
     6    32    33   ar
     7    33    34   ar
     8    34    35   ar
     9    35    36   ar
    10    36    37   ar
    11    37    38   ar
    12    26    27   am
    13    27     1    1
    14     1     2    1
    15     2     3    1
    16     3     4    1
    17     4     6    1
    18     6     7   ar
    19     7     8    1
    20     7     9   ar
    21     9    10   ar
    22    10    11   ar
    23    11    12    2
    24    11    13   ar
    25    13    19    1
    26    19    20   ar
    27    19    21   ar
    28    13    14   ar
    29    14    15   ar
    30    15    22    1
    31    22    23    1
    32    23    24    1
    33    15    16   ar
    34    16    17   ar
    35    17    18    1
    36     4     5    1
    37    38    30   ar
    38     5     1    1
    39    38    33   ar
    40    17     6   ar
    41    16    10   ar
    42    24    22    1
    43    27    28    1
@<TRIPOS>MOLECULE
*****
 38 43 0 0 0
SMALL
GASTEIGER

@<TRIPOS>ATOM
      1 C         143.4548  140.8476  160.8459 C.3     1  UNL1        0.0930
      2 C         144.1575  139.6225  161.3514 C.3     1  UNL1        0.0427
      3 C         144.0341  139.6009  162.8461 C.3     1  UNL1        0.0927
      4 N         143.2551  140.8125  163.2645 N.pl3   1  UNL1       -0.3033
      5 C         142.8971  141.5830  162.0283 C.3     1  UNL1        0.1104
      6 C         142.8970  141.1879  164.6720 C.ar    1  UNL1        0.0878
      7 C         143.8169  142.0614  165.4724 C.ar    1  UNL1        0.1543
      8 F         145.0949  142.5596  164.8654 F       1  UNL1       -0.2028
      9 C         143.4588  142.4367  166.8798 C.ar    1  UNL1        0.0356
     10 C         142.1808  141.9385  167.4868 C.ar    1  UNL1        0.0580
     11 C         141.8227  142.3138  168.8943 C.ar    1  UNL1        0.1996
     12 O         142.7426  143.1873  169.6947 O.2     1  UNL1       -0.2864
     13 C         140.5447  141.8156  169.5013 C.ar    1  UNL1        0.0701
     14 C         139.6247  140.9420  168.7008 C.ar    1  UNL1        0.0801
     15 N         139.9829  140.5667  167.2934 N.ar    1  UNL1       -0.3270
     16 C         141.2609  141.0649  166.6864 C.ar    1  UNL1        0.0750
     17 C         141.6190  140.6897  165.2790 C.ar    1  UNL1        0.0890
     18 CL        140.6991  139.8161  164.4785 Cl      1  UNL1       -0.0794
     19 C         140.1865  142.1909  170.9087 C.2     1  UNL1        0.0774
     20 O         139.2689  143.3493  171.1657 O.co2   1  UNL1       -0.5444
     21 O         140.7461  141.4077  172.0593 O.co2   1  UNL1       -0.5444
     22 C         139.0630  139.6932  166.4930 C.3     1  UNL1        0.0857
     23 C         138.0404  139.5344  165.4071 C.3     1  UNL1        0.0245
     24 C         138.4923  138.3390  166.1924 C.3     1  UNL1        0.0245
     25 O         142.4948  138.8833  158.7916 O.2     1  UNL1       -0.2730
     26 C         142.8514  140.2819  158.3830 C.2     1  UNL1        0.2456
     27 N         143.3314  141.2640  159.4102 N.am    1  UNL1       -0.3026
     28 H         143.5655  142.1819  159.1420 H       1  UNL1        0.1495
     29 C         142.7281  140.6983  156.9472 C.3     1  UNL1        0.1929
     30 N         143.8984  140.5516  156.0206 N.ar    1  UNL1       -0.3004
     31 C         143.9488  139.6906  154.7933 C.ar    1  UNL1        0.1789
     32 N         145.3054  139.8471  154.1727 N.ar    1  UNL1       -0.2239
     33 C         146.0934  140.8047  155.0164 C.ar    1  UNL1        0.0988
     34 C         147.4905  141.3366  154.8923 C.ar    1  UNL1        0.0206
     35 C         148.0179  142.3039  155.9101 C.ar    1  UNL1        0.0016
     36 C         147.1483  142.7393  157.0522 C.ar    1  UNL1        0.0016
     37 C         145.7513  142.2075  157.1764 C.ar    1  UNL1        0.0188
     38 C         145.2239  141.2402  156.1584 C.ar    1  UNL1        0.0793
@<TRIPOS>UNITY_ATOM_ATTR
20 1
charge -1
@<TRIPOS>BOND
     1    25    26    2
     2    26    29    1
     3    29    30    1
     4    30    31   ar
     5    31    32   ar
     6    32    33   ar
     7    33    34   ar
     8    34    35   ar
     9    35    36   ar
    10    36    37   ar
    11    37    38   ar
    12    26    27   am
    13    27     1    1
    14     1     2    1
    15     2     3    1
    16     3     4    1
    17     4     6    1
    18     6     7   ar
    19     7     8    1
    20     7     9   ar
    21     9    10   ar
    22    10    11   ar
    23    11    12    2
    24    11    13   ar
    25    13    19    1
    26    19    20   ar
    27    19    21   ar
    28    13    14   ar
    29    14    15   ar
    30    15    22    1
    31    22    23    1
    32    23    24    1
    33    15    16   ar
    34    16    17   ar
    35    17    18    1
    36     4     5    1
    37    38    30   ar
    38     5     1    1
    39    38    33   ar
    40    17     6   ar
    41    16    10   ar
    42    24    22    1
    43    27    28    1
@<TRIPOS>MOLECULE
*****
 38 43 0 0 0
SMALL
GASTEIGER

@<TRIPOS>ATOM
      1 C         141.3152  143.0192  160.1386 C.3     1  UNL1        0.0930
      2 C         142.6489  142.3725  159.9074 C.3     1  UNL1        0.0427
      3 C         143.2329  142.0238  161.2443 C.3     1  UNL1        0.0927
      4 N         142.2603  142.4549  162.3017 N.pl3   1  UNL1       -0.3033
      5 C         141.0751  143.0701  161.6183 C.3     1  UNL1        0.1104
      6 C         142.4411  142.2984  163.7826 C.ar    1  UNL1        0.0878
      7 C         143.4804  143.1070  164.5009 C.ar    1  UNL1        0.1543
      8 F         144.3389  144.0722  163.7384 F       1  UNL1       -0.2028
      9 C         143.6611  142.9504  165.9817 C.ar    1  UNL1        0.0356
     10 C         142.8026  141.9852  166.7441 C.ar    1  UNL1        0.0580
     11 C         142.9834  141.8286  168.2250 C.ar    1  UNL1        0.1996
     12 O         144.0226  142.6373  168.9433 O.2     1  UNL1       -0.2864
     13 C         142.1249  140.8634  168.9874 C.ar    1  UNL1        0.0701
     14 C         141.0856  140.0548  168.2690 C.ar    1  UNL1        0.0801
     15 N         140.9048  140.2114  166.7883 N.ar    1  UNL1       -0.3270
     16 C         141.7633  141.1766  166.0258 C.ar    1  UNL1        0.0750
     17 C         141.5826  141.3331  164.5450 C.ar    1  UNL1        0.0890
     18 CL        140.5433  140.5245  163.8266 Cl      1  UNL1       -0.0794
     19 C         142.3056  140.7068  170.4682 C.2     1  UNL1        0.0774
     20 O         141.4249  141.4661  171.4158 O.co2   1  UNL1       -0.5444
     21 O         143.3672  139.7910  171.0016 O.co2   1  UNL1       -0.5444
     22 C         139.8656  139.4027  166.0699 C.3     1  UNL1        0.0857
     23 C         138.4593  139.2412  165.5738 C.3     1  UNL1        0.0245
     24 C         139.4718  138.1637  165.3219 C.3     1  UNL1        0.0245
     25 O         141.9492  145.5619  158.6781 O.2     1  UNL1       -0.2730
     26 C         140.7020  144.7972  158.3462 C.2     1  UNL1        0.2456
     27 N         140.3851  143.5259  159.0765 N.am    1  UNL1       -0.3026
     28 H         139.5666  143.0240  158.8587 H       1  UNL1        0.1495
     29 C         139.7719  145.3040  157.2841 C.3     1  UNL1        0.1929
     30 N         140.3147  145.7270  155.9513 N.ar    1  UNL1       -0.3004
     31 C         141.2165  144.9159  155.0688 C.ar    1  UNL1        0.1789
     32 N         141.5102  145.7231  153.8391 N.ar    1  UNL1       -0.2239
     33 C         140.7900  147.0331  153.9617 C.ar    1  UNL1        0.0988
     34 C         140.7115  148.2242  153.0532 C.ar    1  UNL1        0.0206
     35 C         139.8943  149.4176  153.4501 C.ar    1  UNL1        0.0016
     36 C         139.1554  149.4201  154.7556 C.ar    1  UNL1        0.0016
     37 C         139.2339  148.2291  155.6641 C.ar    1  UNL1        0.0188
     38 C         140.0512  147.0356  155.2671 C.ar    1  UNL1        0.0793
@<TRIPOS>UNITY_ATOM_ATTR
20 1
charge -1
@<TRIPOS>BOND
     1    25    26    2
     2    26    29    1
     3    29    30    1
     4    30    31   ar
     5    31    32   ar
     6    32    33   ar
     7    33    34   ar
     8    34    35   ar
     9    35    36   ar
    10    36    37   ar
    11    37    38   ar
    12    26    27   am
    13    27     1    1
    14     1     2    1
    15     2     3    1
    16     3     4    1
    17     4     6    1
    18     6     7   ar
    19     7     8    1
    20     7     9   ar
    21     9    10   ar
    22    10    11   ar
    23    11    12    2
    24    11    13   ar
    25    13    19    1
    26    19    20   ar
    27    19    21   ar
    28    13    14   ar
    29    14    15   ar
    30    15    22    1
    31    22    23    1
    32    23    24    1
    33    15    16   ar
    34    16    17   ar
    35    17    18    1
    36     4     5    1
    37    38    30   ar
    38     5     1    1
    39    38    33   ar
    40    17     6   ar
    41    16    10   ar
    42    24    22    1
    43    27    28    1
@<TRIPOS>MOLECULE
*****
 38 43 0 0 0
SMALL
GASTEIGER

@<TRIPOS>ATOM
      1 C         139.5490  141.3673  160.2796 C.3     1  UNL1        0.0930
      2 C         138.4568  142.3083  160.6941 C.3     1  UNL1        0.0427
      3 C         138.4341  142.3606  162.1930 C.3     1  UNL1        0.0927
      4 N         139.5122  141.4520  162.7049 N.pl3   1  UNL1       -0.3033
      5 C         140.2013  140.8382  161.5224 C.3     1  UNL1        0.1104
      6 C         139.8432  141.2013  164.1463 C.ar    1  UNL1        0.0878
      7 C         138.8719  140.4669  165.0222 C.ar    1  UNL1        0.1543
      8 F         137.5695  139.9832  164.4566 F       1  UNL1       -0.2028
      9 C         139.2030  140.2162  166.4635 C.ar    1  UNL1        0.0356
     10 C         140.5054  140.7000  167.0290 C.ar    1  UNL1        0.0580
     11 C         140.8364  140.4493  168.4704 C.ar    1  UNL1        0.1996
     12 O         139.8651  139.7149  169.3463 O.2     1  UNL1       -0.2864
     13 C         142.1388  140.9330  169.0360 C.ar    1  UNL1        0.0701
     14 C         143.1101  141.6674  168.1600 C.ar    1  UNL1        0.0801
     15 N         142.7791  141.9181  166.7187 N.ar    1  UNL1       -0.3270
     16 C         141.4767  141.4344  166.1532 C.ar    1  UNL1        0.0750
     17 C         141.1456  141.6851  164.7118 C.ar    1  UNL1        0.0890
     18 CL        142.1170  142.4195  163.8359 Cl      1  UNL1       -0.0794
     19 C         142.4698  140.6823  170.4773 C.2     1  UNL1        0.0774
     20 O         141.7575  141.4457  171.5542 O.co2   1  UNL1       -0.5444
     21 O         143.5133  139.6682  170.8418 O.co2   1  UNL1       -0.5444
     22 C         143.7504  142.6525  165.8429 C.3     1  UNL1        0.0857
     23 C         144.3259  143.9425  165.3381 C.3     1  UNL1        0.0245
     24 C         144.8572  142.6347  164.8307 C.3     1  UNL1        0.0245
     25 O         139.3683  138.5232  159.3423 O.2     1  UNL1       -0.2730
     26 C         139.8329  139.5950  158.4012 C.2     1  UNL1        0.2456
     27 N         139.9232  141.0171  158.8699 N.am    1  UNL1       -0.3026
     28 H         140.2280  141.7205  158.2523 H       1  UNL1        0.1495
     29 C         140.2070  139.2448  156.9915 C.3     1  UNL1        0.1929
     30 N         141.5865  138.7417  156.6846 N.ar    1  UNL1       -0.3004
     31 C         142.8618  139.5162  156.8382 C.ar    1  UNL1        0.1789
     32 N         143.9963  138.6290  156.4187 N.ar    1  UNL1       -0.2239
     33 C         143.4220  137.3063  156.0058 C.ar    1  UNL1        0.0988
     34 C         144.0629  136.0473  155.5014 C.ar    1  UNL1        0.0206
     35 C         143.2144  134.8581  155.1614 C.ar    1  UNL1        0.0016
     36 C         141.7250  134.9277  155.3257 C.ar    1  UNL1        0.0016
     37 C         141.0841  136.1867  155.8300 C.ar    1  UNL1        0.0188
     38 C         141.9327  137.3759  156.1701 C.ar    1  UNL1        0.0793
@<TRIPOS>UNITY_ATOM_ATTR
20 1
charge -1
@<TRIPOS>BOND
     1    25    26    2
     2    26    29    1
     3    29    30    1
     4    30    31   ar
     5    31    32   ar
     6    32    33   ar
     7    33    34   ar
     8    34    35   ar
     9    35    36   ar
    10    36    37   ar
    11    37    38   ar
    12    26    27   am
    13    27     1    1
    14     1     2    1
    15     2     3    1
    16     3     4    1
    17     4     6    1
    18     6     7   ar
    19     7     8    1
    20     7     9   ar
    21     9    10   ar
    22    10    11   ar
    23    11    12    2
    24    11    13   ar
    25    13    19    1
    26    19    20   ar
    27    19    21   ar
    28    13    14   ar
    29    14    15   ar
    30    15    22    1
    31    22    23    1
    32    23    24    1
    33    15    16   ar
    34    16    17   ar
    35    17    18    1
    36     4     5    1
    37    38    30   ar
    38     5     1    1
    39    38    33   ar
    40    17     6   ar
    41    16    10   ar
    42    24    22    1
    43    27    28    1
@<TRIPOS>MOLECULE
*****
 38 43 0 0 0
SMALL
GASTEIGER

@<TRIPOS>ATOM
      1 C         143.5323  141.6708  160.6047 C.3     1  UNL1        0.0930
      2 C         143.7943  140.2225  160.8943 C.3     1  UNL1        0.0427
      3 C         143.6087  140.0032  162.3665 C.3     1  UNL1        0.0927
      4 N         143.2321  141.3159  162.9869 N.pl3   1  UNL1       -0.3033
      5 C         143.1848  142.3465  161.8981 C.3     1  UNL1        0.1104
      6 C         142.9519  141.5559  164.4409 C.ar    1  UNL1        0.0878
      7 C         143.9207  142.3443  165.2712 C.ar    1  UNL1        0.1543
      8 F         145.1699  142.8928  164.6477 F       1  UNL1       -0.2028
      9 C         143.6405  142.5842  166.7251 C.ar    1  UNL1        0.0356
     10 C         142.3914  142.0357  167.3486 C.ar    1  UNL1        0.0580
     11 C         142.1111  142.2757  168.8026 C.ar    1  UNL1        0.1996
     12 O         143.0800  143.0642  169.6330 O.2     1  UNL1       -0.2864
     13 C         140.8620  141.7272  169.4261 C.ar    1  UNL1        0.0701
     14 C         139.8931  140.9387  168.5957 C.ar    1  UNL1        0.0801
     15 N         140.1733  140.6988  167.1418 N.ar    1  UNL1       -0.3270
     16 C         141.4225  141.2473  166.5183 C.ar    1  UNL1        0.0750
     17 C         141.7027  141.0073  165.0644 C.ar    1  UNL1        0.0890
     18 CL        140.7338  140.2189  164.2339 Cl      1  UNL1       -0.0794
     19 C         140.5818  141.9671  170.8800 C.2     1  UNL1        0.0774
     20 O         139.5576  142.9841  171.2886 O.co2   1  UNL1       -0.5444
     21 O         141.3257  141.1901  171.9255 O.co2   1  UNL1       -0.5444
     22 C         139.2044  139.9103  166.3115 C.3     1  UNL1        0.0857
     23 C         138.0920  139.8647  165.3063 C.3     1  UNL1        0.0245
     24 C         138.6387  138.5904  165.8784 C.3     1  UNL1        0.0245
     25 O         141.0116  142.2987  159.1041 O.2     1  UNL1       -0.2730
     26 C         142.3446  142.6420  158.5080 C.2     1  UNL1        0.2456
     27 N         143.6049  142.3280  159.2583 N.am    1  UNL1       -0.3026
     28 H         144.4798  142.5533  158.8671 H       1  UNL1        0.1495
     29 C         142.4173  143.2991  157.1616 C.3     1  UNL1        0.1929
     30 N         141.4321  144.3692  156.7951 N.ar    1  UNL1       -0.3004
     31 C         141.5852  145.8374  157.0616 C.ar    1  UNL1        0.1789
     32 N         140.3686  146.5346  156.5291 N.ar    1  UNL1       -0.2239
     33 C         139.4635  145.4973  155.9334 C.ar    1  UNL1        0.0988
     34 C         138.1257  145.5984  155.2625 C.ar    1  UNL1        0.0206
     35 C         137.4452  144.3614  154.7560 C.ar    1  UNL1        0.0016
     36 C         138.1026  143.0231  154.9205 C.ar    1  UNL1        0.0016
     37 C         139.4403  142.9219  155.5914 C.ar    1  UNL1        0.0188
     38 C         140.1208  144.1591  156.0978 C.ar    1  UNL1        0.0793
@<TRIPOS>UNITY_ATOM_ATTR
20 1
charge -1
@<TRIPOS>BOND
     1    25    26    2
     2    26    29    1
     3    29    30    1
     4    30    31   ar
     5    31    32   ar
     6    32    33   ar
     7    33    34   ar
     8    34    35   ar
     9    35    36   ar
    10    36    37   ar
    11    37    38   ar
    12    26    27   am
    13    27     1    1
    14     1     2    1
    15     2     3    1
    16     3     4    1
    17     4     6    1
    18     6     7   ar
    19     7     8    1
    20     7     9   ar
    21     9    10   ar
    22    10    11   ar
    23    11    12    2
    24    11    13   ar
    25    13    19    1
    26    19    20   ar
    27    19    21   ar
    28    13    14   ar
    29    14    15   ar
    30    15    22    1
    31    22    23    1
    32    23    24    1
    33    15    16   ar
    34    16    17   ar
    35    17    18    1
    36     4     5    1
    37    38    30   ar
    38     5     1    1
    39    38    33   ar
    40    17     6   ar
    41    16    10   ar
    42    24    22    1
    43    27    28    1
@<TRIPOS>MOLECULE
*****
 38 43 0 0 0
SMALL
GASTEIGER

@<TRIPOS>ATOM
      1 C         139.4533  141.2216  160.2715 C.3     1  UNL1        0.0930
      2 C         138.1025  140.7576  160.7301 C.3     1  UNL1        0.0427
      3 C         138.0295  140.9415  162.2170 C.3     1  UNL1        0.0927
      4 N         139.3351  141.5190  162.6773 N.pl3   1  UNL1       -0.3033
      5 C         140.2150  141.6921  161.4749 C.3     1  UNL1        0.1104
      6 C         139.6972  141.8631  164.0918 C.ar    1  UNL1        0.0878
      7 C         138.9671  142.9610  164.8070 C.ar    1  UNL1        0.1543
      8 F         137.8749  143.7148  164.1079 F       1  UNL1       -0.2028
      9 C         139.3292  143.3050  166.2214 C.ar    1  UNL1        0.0356
     10 C         140.4215  142.5512  166.9205 C.ar    1  UNL1        0.0580
     11 C         140.7836  142.8953  168.3349 C.ar    1  UNL1        0.1996
     12 O         140.0535  143.9931  169.0502 O.2     1  UNL1       -0.2864
     13 C         141.8758  142.1414  169.0341 C.ar    1  UNL1        0.0701
     14 C         142.6059  141.0435  168.3187 C.ar    1  UNL1        0.0801
     15 N         142.2438  140.6995  166.9044 N.ar    1  UNL1       -0.3270
     16 C         141.1516  141.4533  166.2053 C.ar    1  UNL1        0.0750
     17 C         140.7894  141.1093  164.7909 C.ar    1  UNL1        0.0890
     18 CL        141.5196  140.0114  164.0756 Cl      1  UNL1       -0.0794
     19 C         142.2380  142.4854  170.4484 C.2     1  UNL1        0.0774
     20 O         143.1863  143.6139  170.7265 O.co2   1  UNL1       -0.5444
     21 O         141.6518  141.7010  171.5847 O.co2   1  UNL1       -0.5444
     22 C         142.9739  139.6016  166.1891 C.3     1  UNL1        0.0857
     23 C         144.0935  139.1520  165.2979 C.3     1  UNL1        0.0245
     24 C         143.1189  138.1497  165.8415 C.3     1  UNL1        0.0245
     25 O         140.2855  138.6421  158.9853 O.2     1  UNL1       -0.2730
     26 C         140.3704  139.9262  158.2145 C.2     1  UNL1        0.2456
     27 N         139.9543  141.2159  158.8576 N.am    1  UNL1       -0.3026
     28 H         140.0100  142.0587  158.3518 H       1  UNL1        0.1495
     29 C         140.8714  139.9205  156.8007 C.3     1  UNL1        0.1929
     30 N         142.1289  139.1801  156.4535 N.ar    1  UNL1       -0.3004
     31 C         143.5059  139.7695  156.3747 C.ar    1  UNL1        0.1789
     32 N         144.4581  138.6739  155.9967 N.ar    1  UNL1       -0.2239
     33 C         143.6696  137.4074  155.8419 C.ar    1  UNL1        0.0988
     34 C         144.0764  136.0095  155.4803 C.ar    1  UNL1        0.0206
     35 C         143.0437  134.9247  155.4011 C.ar    1  UNL1        0.0016
     36 C         141.6040  135.2375  155.6835 C.ar    1  UNL1        0.0016
     37 C         141.1972  136.6353  156.0450 C.ar    1  UNL1        0.0188
     38 C         142.2300  137.7202  156.1243 C.ar    1  UNL1        0.0793
@<TRIPOS>UNITY_ATOM_ATTR
20 1
charge -1
@<TRIPOS>BOND
     1    25    26    2
     2    26    29    1
     3    29    30    1
     4    30    31   ar
     5    31    32   ar
     6    32    33   ar
     7    33    34   ar
     8    34    35   ar
     9    35    36   ar
    10    36    37   ar
    11    37    38   ar
    12    26    27   am
    13    27     1    1
    14     1     2    1
    15     2     3    1
    16     3     4    1
    17     4     6    1
    18     6     7   ar
    19     7     8    1
    20     7     9   ar
    21     9    10   ar
    22    10    11   ar
    23    11    12    2
    24    11    13   ar
    25    13    19    1
    26    19    20   ar
    27    19    21   ar
    28    13    14   ar
    29    14    15   ar
    30    15    22    1
    31    22    23    1
    32    23    24    1
    33    15    16   ar
    34    16    17   ar
    35    17    18    1
    36     4     5    1
    37    38    30   ar
    38     5     1    1
    39    38    33   ar
    40    17     6   ar
    41    16    10   ar
    42    24    22    1
    43    27    28    1
