@<TRIPOS>MOLECULE
*****
 42 44 0 0 0
SMALL
GASTEIGER

@<TRIPOS>ATOM
      1 C         142.4571  140.1512  168.4202 C.3     1  UNL1        0.0592
      2 C         142.6231  139.1623  169.5357 C.3     1  UNL1        0.0174
      3 C         141.6052  138.7096  164.2434 C.3     1  UNL1        0.0800
      4 C         142.9284  138.4122  164.8842 C.3     1  UNL1        0.0372
      5 C         143.2124  138.8927  166.2764 C.3     1  UNL1        0.0738
      6 N         142.1731  139.6707  167.0279 N.3     1  UNL1       -0.2738
      7 C         140.8499  139.9681  166.3871 C.3     1  UNL1        0.0738
      8 C         140.5659  139.4875  164.9949 C.3     1  UNL1        0.0372
      9 N         142.1410  137.6939  160.4445 N.am    1  UNL1       -0.1773
     10 C         142.4249  138.1744  161.8368 C.2     1  UNL1        0.3266
     11 O         143.8126  138.6004  162.2148 O.2     1  UNL1       -0.2504
     12 N         141.3212  138.2290  162.8511 N.am    1  UNL1       -0.2600
     13 H         141.2302  137.4143  160.1965 H       1  UNL1        0.1841
     14 C         142.9232  137.4049  157.9839 C.3     1  UNL1        0.2056
     15 O         143.2447  137.6393  159.4302 O.3     1  UNL1       -0.2624
     16 C         139.9335  137.8030  162.4732 C.3     1  UNL1        0.1222
     17 C         139.0251  138.7574  161.7562 C.ar    1  UNL1        0.0047
     18 C         138.0707  139.7187  162.4006 C.ar    1  UNL1        0.0049
     19 C         137.3673  140.4735  161.3117 C.ar    1  UNL1        0.0352
     20 S         137.8871  139.9787  159.9944 S.2     1  UNL1       -0.0862
     21 C         138.9116  138.9181  160.2692 C.ar    1  UNL1        0.0328
     22 C         142.5751  141.6208  168.6969 C.3     1  UNL1        0.0372
     23 C         143.4456  142.4799  167.8286 C.3     1  UNL1        0.0911
     24 N         143.3289  142.3983  166.3353 N.am    1  UNL1       -0.3008
     25 C         144.2374  143.2165  165.4663 C.2     1  UNL1        0.2467
     26 O         145.2624  144.1163  166.0904 O.2     1  UNL1       -0.2701
     27 H         142.6561  141.8077  165.9257 H       1  UNL1        0.1497
     28 C         144.1208  143.1349  163.9730 C.ar    1  UNL1        0.0630
     29 C         144.8200  142.0388  163.2249 C.ar    1  UNL1       -0.0147
     30 C         145.6359  141.0244  163.9701 C.3     1  UNL1        0.0313
     31 C         144.7034  141.9571  161.7317 C.ar    1  UNL1        0.0196
     32 C         143.8875  142.9716  160.9866 C.ar    1  UNL1        0.1337
     33 N         143.1882  144.0677  161.7346 N.ar    1  UNL1       -0.2450
     34 C         143.3049  144.1494  163.2279 C.ar    1  UNL1        0.0635
     35 C         142.6056  145.2454  163.9760 C.3     1  UNL1        0.0522
     36 C         143.7709  142.8899  159.4933 C.2     1  UNL1        0.2635
     37 O         143.0856  143.9868  158.7335 O.2     1  UNL1       -0.2685
     38 N         144.3395  141.7115  158.7600 N.am    1  UNL1       -0.3013
     39 H         144.7893  140.9916  159.2587 H       1  UNL1        0.1497
     40 C         144.2229  141.6298  157.2667 C.3     1  UNL1        0.0720
     41 C         145.3571  142.0899  156.3996 C.3     1  UNL1        0.0213
     42 C         142.9721  141.0881  156.6406 C.3     1  UNL1        0.0213
@<TRIPOS>BOND
     1    14    15    1
     2    15     9    1
     3     9    10   am
     4    10    11    2
     5    10    12   am
     6    12    16    1
     7    16    17    1
     8    17    18   ar
     9    18    19   ar
    10    19    20   ar
    11    20    21   ar
    12    12     3    1
    13     3     4    1
    14     4     5    1
    15     5     6    1
    16     6     1    1
    17     1     2    1
    18     1    22    1
    19    22    23    1
    20    23    24    1
    21    24    25   am
    22    25    26    2
    23    25    28    1
    24    28    29   ar
    25    29    30    1
    26    29    31   ar
    27    31    32   ar
    28    32    36    1
    29    36    37    2
    30    36    38   am
    31    38    40    1
    32    40    41    1
    33    40    42    1
    34    32    33   ar
    35    33    34   ar
    36    34    35    1
    37     6     7    1
    38     7     8    1
    39    21    17   ar
    40     8     3    1
    41    34    28   ar
    42     9    13    1
    43    24    27    1
    44    38    39    1
@<TRIPOS>MOLECULE
*****
 42 44 0 0 0
SMALL
GASTEIGER

@<TRIPOS>ATOM
      1 C         140.3178  140.6024  168.9289 C.3     1  UNL1        0.0592
      2 C         139.5481  141.0952  170.1183 C.3     1  UNL1        0.0174
      3 C         139.1427  141.9140  164.7877 C.3     1  UNL1        0.0800
      4 C         138.8511  140.5146  165.2422 C.3     1  UNL1        0.0372
      5 C         139.2428  140.0774  166.6226 C.3     1  UNL1        0.0738
      6 N         139.9261  141.0397  167.5484 N.3     1  UNL1       -0.2738
      7 C         140.2177  142.4391  167.0939 C.3     1  UNL1        0.0738
      8 C         139.8260  142.8762  165.7136 C.3     1  UNL1        0.0372
      9 N         138.9990  143.9989  161.4139 N.am    1  UNL1       -0.1773
     10 C         139.3906  143.5616  162.7942 C.2     1  UNL1        0.3266
     11 O         140.4219  144.3348  163.5616 O.2     1  UNL1       -0.2504
     12 N         138.7510  142.3512  163.4073 N.am    1  UNL1       -0.2600
     13 H         138.3221  143.4915  160.9103 H       1  UNL1        0.1841
     14 C         139.5491  146.5368  161.4935 C.3     1  UNL1        0.2056
     15 O         139.6386  145.2093  160.8008 O.3     1  UNL1       -0.2624
     16 C         137.7198  141.5781  162.6401 C.3     1  UNL1        0.1222
     17 C         138.1359  140.4226  161.7788 C.ar    1  UNL1        0.0047
     18 C         138.7528  140.5171  160.4147 C.ar    1  UNL1        0.0049
     19 C         139.0064  139.1227  159.9232 C.ar    1  UNL1        0.0352
     20 S         138.5463  138.1666  160.9835 S.2     1  UNL1       -0.0862
     21 C         138.0083  138.9700  162.1303 C.ar    1  UNL1        0.0328
     22 C         141.4791  139.6724  169.1197 C.3     1  UNL1        0.0372
     23 C         142.7107  139.8279  168.2777 C.3     1  UNL1        0.0911
     24 N         142.6044  139.8035  166.7817 N.am    1  UNL1       -0.3008
     25 C         143.3490  138.7667  165.9938 C.2     1  UNL1        0.2467
     26 O         144.1997  137.7544  166.7019 O.2     1  UNL1       -0.2701
     27 H         142.0460  140.4679  166.3170 H       1  UNL1        0.1497
     28 C         143.2427  138.7422  164.4977 C.ar    1  UNL1        0.0630
     29 C         142.1211  137.9965  163.8376 C.ar    1  UNL1       -0.0147
     30 C         141.1057  137.2753  164.6735 C.3     1  UNL1        0.0313
     31 C         142.0149  137.9721  162.3416 C.ar    1  UNL1        0.0196
     32 C         143.0302  138.6934  161.5057 C.ar    1  UNL1        0.1337
     33 N         144.1519  139.4391  162.1658 N.ar    1  UNL1       -0.2450
     34 C         144.2582  139.4636  163.6618 C.ar    1  UNL1        0.0635
     35 C         145.3798  140.2093  164.3220 C.3     1  UNL1        0.0522
     36 C         142.9240  138.6689  160.0096 C.2     1  UNL1        0.2635
     37 O         143.1032  137.3786  159.2660 O.2     1  UNL1       -0.2685
     38 N         142.6385  139.9347  159.2573 N.am    1  UNL1       -0.3013
     39 H         142.5208  140.7816  159.7453 H       1  UNL1        0.1497
     40 C         142.5322  139.9103  157.7612 C.3     1  UNL1        0.0720
     41 C         143.7192  140.2731  156.9190 C.3     1  UNL1        0.0213
     42 C         141.2390  139.5230  157.1074 C.3     1  UNL1        0.0213
@<TRIPOS>BOND
     1    14    15    1
     2    15     9    1
     3     9    10   am
     4    10    11    2
     5    10    12   am
     6    12    16    1
     7    16    17    1
     8    17    18   ar
     9    18    19   ar
    10    19    20   ar
    11    20    21   ar
    12    12     3    1
    13     3     4    1
    14     4     5    1
    15     5     6    1
    16     6     1    1
    17     1     2    1
    18     1    22    1
    19    22    23    1
    20    23    24    1
    21    24    25   am
    22    25    26    2
    23    25    28    1
    24    28    29   ar
    25    29    30    1
    26    29    31   ar
    27    31    32   ar
    28    32    36    1
    29    36    37    2
    30    36    38   am
    31    38    40    1
    32    40    41    1
    33    40    42    1
    34    32    33   ar
    35    33    34   ar
    36    34    35    1
    37     6     7    1
    38     7     8    1
    39    21    17   ar
    40     8     3    1
    41    34    28   ar
    42     9    13    1
    43    24    27    1
    44    38    39    1
@<TRIPOS>MOLECULE
*****
 42 44 0 0 0
SMALL
GASTEIGER

@<TRIPOS>ATOM
      1 C         139.8013  142.9382  158.0228 C.3     1  UNL1        0.0592
      2 C         139.1286  142.4893  156.7596 C.3     1  UNL1        0.0174
      3 C         139.7610  140.2863  161.6582 C.3     1  UNL1        0.0800
      4 C         138.4927  140.9356  161.1894 C.3     1  UNL1        0.0372
      5 C         138.5061  141.8195  159.9776 C.3     1  UNL1        0.0738
      6 N         139.7879  142.0542  159.2347 N.3     1  UNL1       -0.2738
      7 C         141.0562  141.4049  159.7035 C.3     1  UNL1        0.0738
      8 C         141.0427  140.5210  160.9153 C.3     1  UNL1        0.0372
      9 N         138.6883  138.7118  165.1396 N.am    1  UNL1       -0.1773
     10 C         138.7018  139.5957  163.9279 C.2     1  UNL1        0.3266
     11 O         137.6694  140.6731  163.7738 O.2     1  UNL1       -0.2504
     12 N         139.7475  139.4024  162.8701 N.am    1  UNL1       -0.2600
     13 H         139.3658  138.0047  165.2407 H       1  UNL1        0.1841
     14 C         137.3118  137.7850  167.1388 C.3     1  UNL1        0.2056
     15 O         137.6425  138.9052  166.1974 O.3     1  UNL1       -0.2624
     16 C         140.7799  138.3251  163.0240 C.3     1  UNL1        0.1222
     17 C         142.0031  138.5719  163.8564 C.ar    1  UNL1        0.0047
     18 C         143.3396  139.0241  163.3471 C.ar    1  UNL1        0.0049
     19 C         144.2671  139.1415  164.5202 C.ar    1  UNL1        0.0352
     20 S         143.5038  138.7620  165.7544 S.2     1  UNL1       -0.0862
     21 C         142.1046  138.4100  165.3442 C.ar    1  UNL1        0.0328
     22 C         140.4876  144.2710  158.0744 C.3     1  UNL1        0.0372
     23 C         140.4463  145.0877  159.3318 C.3     1  UNL1        0.0911
     24 N         140.4871  144.4089  160.6687 N.am    1  UNL1       -0.3008
     25 C         140.2224  145.1959  161.9180 C.2     1  UNL1        0.2467
     26 O         139.9168  146.6618  161.8302 O.2     1  UNL1       -0.2701
     27 H         140.6877  143.4467  160.7264 H       1  UNL1        0.1497
     28 C         140.2632  144.5170  163.2549 C.ar    1  UNL1        0.0630
     29 C         138.9935  144.0305  163.8881 C.ar    1  UNL1       -0.0147
     30 C         137.6829  144.2228  163.1843 C.3     1  UNL1        0.0313
     31 C         139.0343  143.3516  165.2251 C.ar    1  UNL1        0.0196
     32 C         140.3449  143.1593  165.9288 C.ar    1  UNL1        0.1337
     33 N         141.6147  143.6458  165.2957 N.ar    1  UNL1       -0.2450
     34 C         141.5739  144.3247  163.9587 C.ar    1  UNL1        0.0635
     35 C         142.8436  144.8113  163.3255 C.3     1  UNL1        0.0522
     36 C         140.3857  142.4804  167.2658 C.2     1  UNL1        0.2635
     37 O         140.5089  143.2969  168.5181 O.2     1  UNL1       -0.2685
     38 N         140.3034  140.9851  167.3505 N.am    1  UNL1       -0.3013
     39 H         140.2226  140.4492  166.5285 H       1  UNL1        0.1497
     40 C         140.3442  140.3062  168.6874 C.3     1  UNL1        0.0720
     41 C         139.1191  140.2788  169.5524 C.3     1  UNL1        0.0213
     42 C         141.6102  139.6546  169.1594 C.3     1  UNL1        0.0213
@<TRIPOS>BOND
     1    14    15    1
     2    15     9    1
     3     9    10   am
     4    10    11    2
     5    10    12   am
     6    12    16    1
     7    16    17    1
     8    17    18   ar
     9    18    19   ar
    10    19    20   ar
    11    20    21   ar
    12    12     3    1
    13     3     4    1
    14     4     5    1
    15     5     6    1
    16     6     1    1
    17     1     2    1
    18     1    22    1
    19    22    23    1
    20    23    24    1
    21    24    25   am
    22    25    26    2
    23    25    28    1
    24    28    29   ar
    25    29    30    1
    26    29    31   ar
    27    31    32   ar
    28    32    36    1
    29    36    37    2
    30    36    38   am
    31    38    40    1
    32    40    41    1
    33    40    42    1
    34    32    33   ar
    35    33    34   ar
    36    34    35    1
    37     6     7    1
    38     7     8    1
    39    21    17   ar
    40     8     3    1
    41    34    28   ar
    42     9    13    1
    43    24    27    1
    44    38    39    1
@<TRIPOS>MOLECULE
*****
 42 44 0 0 0
SMALL
GASTEIGER

@<TRIPOS>ATOM
      1 C         139.2679  143.2751  158.1427 C.3     1  UNL1        0.0592
      2 C         138.1669  142.9463  157.1785 C.3     1  UNL1        0.0174
      3 C         140.2998  140.3984  161.4457 C.3     1  UNL1        0.0800
      4 C         141.2187  140.5513  160.2700 C.3     1  UNL1        0.0372
      5 C         140.8747  141.5102  159.1691 C.3     1  UNL1        0.0738
      6 N         139.6118  142.3161  159.2438 N.3     1  UNL1       -0.2738
      7 C         138.6929  142.1632  160.4194 C.3     1  UNL1        0.0738
      8 C         139.0369  141.2043  161.5204 C.3     1  UNL1        0.0372
      9 N         142.3202  138.5695  164.3306 N.am    1  UNL1       -0.1773
     10 C         141.9763  139.5283  163.2296 C.2     1  UNL1        0.3266
     11 O         142.9649  140.5762  162.8115 O.2     1  UNL1       -0.2504
     12 N         140.6437  139.4394  162.5467 N.am    1  UNL1       -0.2600
     13 H         141.6714  137.8818  164.6050 H       1  UNL1        0.1841
     14 C         143.8108  138.1555  166.4180 C.3     1  UNL1        0.2056
     15 O         143.6528  138.6584  165.0136 O.3     1  UNL1       -0.2624
     16 C         139.6551  138.3916  162.9648 C.3     1  UNL1        0.1222
     17 C         139.0225  138.4568  164.3234 C.ar    1  UNL1        0.0047
     18 C         138.6490  137.2829  165.1791 C.ar    1  UNL1        0.0049
     19 C         138.0481  137.8078  166.4494 C.ar    1  UNL1        0.0352
     20 S         138.0503  139.3062  166.3785 S.2     1  UNL1       -0.0862
     21 C         138.6525  139.7072  165.0646 C.ar    1  UNL1        0.0328
     22 C         140.0250  144.5628  158.0059 C.3     1  UNL1        0.0372
     23 C         140.4546  145.3140  159.2311 C.3     1  UNL1        0.0911
     24 N         140.6153  144.5917  160.5359 N.am    1  UNL1       -0.3008
     25 C         140.2717  145.2820  161.8226 C.2     1  UNL1        0.2467
     26 O         139.7675  146.6946  161.8044 O.2     1  UNL1       -0.2701
     27 H         140.9462  143.6645  160.5478 H       1  UNL1        0.1497
     28 C         140.4324  144.5597  163.1273 C.ar    1  UNL1        0.0630
     29 C         139.2223  144.0848  163.8757 C.ar    1  UNL1       -0.0147
     30 C         137.8515  144.3322  163.3193 C.3     1  UNL1        0.0313
     31 C         139.3830  143.3626  165.1805 C.ar    1  UNL1        0.0196
     32 C         140.7538  143.1152  165.7369 C.ar    1  UNL1        0.1337
     33 N         141.9640  143.5901  164.9886 N.ar    1  UNL1       -0.2450
     34 C         141.8033  144.3124  163.6838 C.ar    1  UNL1        0.0635
     35 C         143.0134  144.7872  162.9354 C.3     1  UNL1        0.0522
     36 C         140.9145  142.3929  167.0417 C.2     1  UNL1        0.2635
     37 O         141.4610  140.9961  167.0634 O.2     1  UNL1       -0.2685
     38 N         140.5288  143.0673  168.3248 N.am    1  UNL1       -0.3013
     39 H         140.1701  143.9840  168.3105 H       1  UNL1        0.1497
     40 C         140.6895  142.3450  169.6296 C.3     1  UNL1        0.0720
     41 C         139.5110  141.6638  170.2598 C.3     1  UNL1        0.0213
     42 C         142.0286  142.3039  170.3041 C.3     1  UNL1        0.0213
@<TRIPOS>BOND
     1    14    15    1
     2    15     9    1
     3     9    10   am
     4    10    11    2
     5    10    12   am
     6    12    16    1
     7    16    17    1
     8    17    18   ar
     9    18    19   ar
    10    19    20   ar
    11    20    21   ar
    12    12     3    1
    13     3     4    1
    14     4     5    1
    15     5     6    1
    16     6     1    1
    17     1     2    1
    18     1    22    1
    19    22    23    1
    20    23    24    1
    21    24    25   am
    22    25    26    2
    23    25    28    1
    24    28    29   ar
    25    29    30    1
    26    29    31   ar
    27    31    32   ar
    28    32    36    1
    29    36    37    2
    30    36    38   am
    31    38    40    1
    32    40    41    1
    33    40    42    1
    34    32    33   ar
    35    33    34   ar
    36    34    35    1
    37     6     7    1
    38     7     8    1
    39    21    17   ar
    40     8     3    1
    41    34    28   ar
    42     9    13    1
    43    24    27    1
    44    38    39    1
@<TRIPOS>MOLECULE
*****
 42 44 0 0 0
SMALL
GASTEIGER

@<TRIPOS>ATOM
      1 C         137.9556  142.4138  156.1048 C.3     1  UNL1        0.0592
      2 C         136.9059  143.2059  155.3834 C.3     1  UNL1        0.0174
      3 C         140.0286  144.1682  159.6930 C.3     1  UNL1        0.0800
      4 C         139.0059  143.0857  159.8725 C.3     1  UNL1        0.0372
      5 C         138.3149  142.5009  158.6765 C.3     1  UNL1        0.0738
      6 N         138.6466  142.9986  157.3009 N.3     1  UNL1       -0.2738
      7 C         139.6693  144.0811  157.1213 C.3     1  UNL1        0.0738
      8 C         140.3603  144.6659  158.3174 C.3     1  UNL1        0.0372
      9 N         142.8614  145.0459  162.3302 N.am    1  UNL1       -0.1773
     10 C         142.1704  144.4611  161.1342 C.2     1  UNL1        0.3266
     11 O         142.9301  143.5843  160.1833 O.2     1  UNL1       -0.2504
     12 N         140.7196  144.7531  160.8890 N.am    1  UNL1       -0.2600
     13 H         142.3628  145.6214  162.9542 H       1  UNL1        0.1841
     14 C         144.7264  143.4216  163.1261 C.3     1  UNL1        0.2056
     15 O         144.3122  144.7540  162.5753 O.3     1  UNL1       -0.2624
     16 C         139.9599  145.6298  161.8399 C.3     1  UNL1        0.1222
     17 C         139.3180  145.0353  163.0584 C.ar    1  UNL1        0.0047
     18 C         137.9242  144.4874  163.1421 C.ar    1  UNL1        0.0049
     19 C         137.7020  143.9978  164.5425 C.ar    1  UNL1        0.0352
     20 S         138.9585  144.2432  165.3242 S.2     1  UNL1       -0.0862
     21 C         139.9573  144.8844  164.4069 C.ar    1  UNL1        0.0328
     22 C         138.3143  141.0368  155.6303 C.3     1  UNL1        0.0372
     23 C         139.6398  140.4384  155.9979 C.3     1  UNL1        0.0911
     24 N         140.0095  140.2638  157.4411 N.am    1  UNL1       -0.3008
     25 C         139.8894  138.9159  158.0883 C.2     1  UNL1        0.2467
     26 O         139.3996  137.7427  157.2923 O.2     1  UNL1       -0.2701
     27 H         140.3310  141.0338  157.9635 H       1  UNL1        0.1497
     28 C         140.2592  138.7413  159.5315 C.ar    1  UNL1        0.0630
     29 C         139.2432  139.0044  160.6031 C.ar    1  UNL1       -0.0147
     30 C         137.8575  139.4421  160.2316 C.3     1  UNL1        0.0313
     31 C         139.6130  138.8298  162.0463 C.ar    1  UNL1        0.0196
     32 C         140.9987  138.3921  162.4179 C.ar    1  UNL1        0.1337
     33 N         142.0148  138.1290  161.3462 N.ar    1  UNL1       -0.2450
     34 C         141.6450  138.3036  159.9030 C.ar    1  UNL1        0.0635
     35 C         142.6610  138.0405  158.8313 C.3     1  UNL1        0.0522
     36 C         141.3685  138.2175  163.8611 C.2     1  UNL1        0.2635
     37 O         140.7566  137.1073  164.6630 O.2     1  UNL1       -0.2685
     38 N         142.3501  139.1531  164.5023 N.am    1  UNL1       -0.3013
     39 H         142.7517  139.8817  163.9759 H       1  UNL1        0.1497
     40 C         142.7198  138.9785  165.9454 C.3     1  UNL1        0.0720
     41 C         141.9055  139.6451  167.0143 C.3     1  UNL1        0.0213
     42 C         143.9040  138.1373  166.3198 C.3     1  UNL1        0.0213
@<TRIPOS>BOND
     1    14    15    1
     2    15     9    1
     3     9    10   am
     4    10    11    2
     5    10    12   am
     6    12    16    1
     7    16    17    1
     8    17    18   ar
     9    18    19   ar
    10    19    20   ar
    11    20    21   ar
    12    12     3    1
    13     3     4    1
    14     4     5    1
    15     5     6    1
    16     6     1    1
    17     1     2    1
    18     1    22    1
    19    22    23    1
    20    23    24    1
    21    24    25   am
    22    25    26    2
    23    25    28    1
    24    28    29   ar
    25    29    30    1
    26    29    31   ar
    27    31    32   ar
    28    32    36    1
    29    36    37    2
    30    36    38   am
    31    38    40    1
    32    40    41    1
    33    40    42    1
    34    32    33   ar
    35    33    34   ar
    36    34    35    1
    37     6     7    1
    38     7     8    1
    39    21    17   ar
    40     8     3    1
    41    34    28   ar
    42     9    13    1
    43    24    27    1
    44    38    39    1
@<TRIPOS>MOLECULE
*****
 42 44 0 0 0
SMALL
GASTEIGER

@<TRIPOS>ATOM
      1 C         139.1566  142.9359  158.1500 C.3     1  UNL1        0.0592
      2 C         138.0056  142.7676  157.2030 C.3     1  UNL1        0.0174
      3 C         139.8642  139.8980  161.3936 C.3     1  UNL1        0.0800
      4 C         140.8149  139.9961  160.2376 C.3     1  UNL1        0.0372
      5 C         140.5791  141.0087  159.1564 C.3     1  UNL1        0.0738
      6 N         139.3924  141.9232  159.2312 N.3     1  UNL1       -0.2738
      7 C         138.4417  141.8251  160.3872 C.3     1  UNL1        0.0738
      8 C         138.6775  140.8125  161.4684 C.3     1  UNL1        0.0372
      9 N         139.2927  137.6436  164.6093 N.am    1  UNL1       -0.1773
     10 C         139.0569  138.6561  163.5281 C.2     1  UNL1        0.3266
     11 O         137.7780  139.4395  163.5001 O.2     1  UNL1       -0.2504
     12 N         140.1000  138.8854  162.4748 N.am    1  UNL1       -0.2600
     13 H         140.1321  137.1294  164.6276 H       1  UNL1        0.1841
     14 C         137.9332  138.4958  166.6527 C.3     1  UNL1        0.2056
     15 O         138.2496  137.4143  165.6626 O.3     1  UNL1       -0.2624
     16 C         141.3789  138.1021  162.5027 C.3     1  UNL1        0.1222
     17 C         142.5421  138.5939  163.3122 C.ar    1  UNL1        0.0047
     18 C         142.6873  138.4884  164.8014 C.ar    1  UNL1        0.0049
     19 C         143.9993  139.1068  165.1841 C.ar    1  UNL1        0.0352
     20 S         144.6649  139.5944  163.9314 S.2     1  UNL1       -0.0862
     21 C         143.7643  139.2774  162.7745 C.ar    1  UNL1        0.0328
     22 C         140.0718  144.1167  158.0159 C.3     1  UNL1        0.0372
     23 C         140.4353  144.9252  159.2259 C.3     1  UNL1        0.0911
     24 N         140.4966  144.2710  160.5743 N.am    1  UNL1       -0.3008
     25 C         140.2390  145.0783  161.8121 C.2     1  UNL1        0.2467
     26 O         139.9201  146.5398  161.7014 O.2     1  UNL1       -0.2701
     27 H         140.7059  143.3117  160.6470 H       1  UNL1        0.1497
     28 C         140.3004  144.4241  163.1605 C.ar    1  UNL1        0.0630
     29 C         141.6257  144.2031  163.8273 C.ar    1  UNL1       -0.0147
     30 C         142.8897  144.6363  163.1456 C.3     1  UNL1        0.0313
     31 C         141.6870  143.5488  165.1757 C.ar    1  UNL1        0.0196
     32 C         140.4231  143.1156  165.8573 C.ar    1  UNL1        0.1337
     33 N         139.0977  143.3366  165.1905 N.ar    1  UNL1       -0.2450
     34 C         139.0363  143.9908  163.8421 C.ar    1  UNL1        0.0635
     35 C         137.7110  144.2118  163.1753 C.3     1  UNL1        0.0522
     36 C         140.4844  142.4613  167.2057 C.2     1  UNL1        0.2635
     37 O         140.4376  143.2995  168.4488 O.2     1  UNL1       -0.2685
     38 N         140.5926  140.9690  167.3110 N.am    1  UNL1       -0.3013
     39 H         140.6233  140.4189  166.4951 H       1  UNL1        0.1497
     40 C         140.6539  140.3147  168.6594 C.3     1  UNL1        0.0720
     41 C         139.4377  140.2899  169.5370 C.3     1  UNL1        0.0213
     42 C         141.9314  139.6853  169.1302 C.3     1  UNL1        0.0213
@<TRIPOS>BOND
     1    14    15    1
     2    15     9    1
     3     9    10   am
     4    10    11    2
     5    10    12   am
     6    12    16    1
     7    16    17    1
     8    17    18   ar
     9    18    19   ar
    10    19    20   ar
    11    20    21   ar
    12    12     3    1
    13     3     4    1
    14     4     5    1
    15     5     6    1
    16     6     1    1
    17     1     2    1
    18     1    22    1
    19    22    23    1
    20    23    24    1
    21    24    25   am
    22    25    26    2
    23    25    28    1
    24    28    29   ar
    25    29    30    1
    26    29    31   ar
    27    31    32   ar
    28    32    36    1
    29    36    37    2
    30    36    38   am
    31    38    40    1
    32    40    41    1
    33    40    42    1
    34    32    33   ar
    35    33    34   ar
    36    34    35    1
    37     6     7    1
    38     7     8    1
    39    21    17   ar
    40     8     3    1
    41    34    28   ar
    42     9    13    1
    43    24    27    1
    44    38    39    1
@<TRIPOS>MOLECULE
*****
 42 44 0 0 0
SMALL
GASTEIGER

@<TRIPOS>ATOM
      1 C         138.6787  141.9199  158.1860 C.3     1  UNL1        0.0592
      2 C         137.5885  141.2945  157.3672 C.3     1  UNL1        0.0174
      3 C         140.2500  139.8031  161.8328 C.3     1  UNL1        0.0800
      4 C         138.9066  140.4691  161.8729 C.3     1  UNL1        0.0372
      5 C         138.3829  141.1747  160.6573 C.3     1  UNL1        0.0738
      6 N         139.2025  141.2143  159.4016 N.3     1  UNL1       -0.2738
      7 C         140.5459  140.5482  159.3616 C.3     1  UNL1        0.0738
      8 C         141.0696  139.8426  160.5772 C.3     1  UNL1        0.0372
      9 N         142.5968  138.8211  164.8789 N.am    1  UNL1       -0.1773
     10 C         142.0730  139.5267  163.6633 C.2     1  UNL1        0.3266
     11 O         142.8483  140.6616  163.0624 O.2     1  UNL1       -0.2504
     12 N         140.7738  139.0974  163.0485 N.am    1  UNL1       -0.2600
     13 H         142.0879  138.0762  165.2732 H       1  UNL1        0.1841
     14 C         145.1753  139.1002  164.7249 C.3     1  UNL1        0.2056
     15 O         143.8959  139.2503  165.4937 O.3     1  UNL1       -0.2624
     16 C         139.9985  137.9626  163.6493 C.3     1  UNL1        0.1222
     17 C         139.1711  138.1881  164.8800 C.ar    1  UNL1        0.0047
     18 C         138.3340  137.1590  165.5803 C.ar    1  UNL1        0.0049
     19 C         137.6810  137.8171  166.7596 C.ar    1  UNL1        0.0352
     20 S         138.1146  139.2529  166.7880 S.2     1  UNL1       -0.0862
     21 C         139.0355  139.4821  165.6264 C.ar    1  UNL1        0.0328
     22 C         139.2451  143.2510  157.7891 C.3     1  UNL1        0.0372
     23 C         139.7503  144.1945  158.8400 C.3     1  UNL1        0.0911
     24 N         140.0803  143.6831  160.2110 N.am    1  UNL1       -0.3008
     25 C         139.9439  144.5860  161.4011 C.2     1  UNL1        0.2467
     26 O         139.4777  146.0001  161.2202 O.2     1  UNL1       -0.2701
     27 H         140.3863  142.7550  160.3297 H       1  UNL1        0.1497
     28 C         140.2739  144.0746  162.7721 C.ar    1  UNL1        0.0630
     29 C         141.7033  143.9979  163.2201 C.ar    1  UNL1       -0.0147
     30 C         142.8029  144.4326  162.2970 C.3     1  UNL1        0.0313
     31 C         142.0333  143.4865  164.5911 C.ar    1  UNL1        0.0196
     32 C         140.9338  143.0519  165.5141 C.ar    1  UNL1        0.1337
     33 N         139.5042  143.1286  165.0662 N.ar    1  UNL1       -0.2450
     34 C         139.1743  143.6399  163.6952 C.ar    1  UNL1        0.0635
     35 C         137.7448  143.7166  163.2473 C.3     1  UNL1        0.0522
     36 C         141.2637  142.5405  166.8851 C.2     1  UNL1        0.2635
     37 O         140.3854  142.8936  168.0488 O.2     1  UNL1       -0.2685
     38 N         142.4719  141.6761  167.0925 N.am    1  UNL1       -0.3013
     39 H         143.0483  141.4444  166.3288 H       1  UNL1        0.1497
     40 C         142.8018  141.1647  168.4635 C.3     1  UNL1        0.0720
     41 C         142.4683  139.7508  168.8370 C.3     1  UNL1        0.0213
     42 C         143.4652  142.0673  169.4611 C.3     1  UNL1        0.0213
@<TRIPOS>BOND
     1    14    15    1
     2    15     9    1
     3     9    10   am
     4    10    11    2
     5    10    12   am
     6    12    16    1
     7    16    17    1
     8    17    18   ar
     9    18    19   ar
    10    19    20   ar
    11    20    21   ar
    12    12     3    1
    13     3     4    1
    14     4     5    1
    15     5     6    1
    16     6     1    1
    17     1     2    1
    18     1    22    1
    19    22    23    1
    20    23    24    1
    21    24    25   am
    22    25    26    2
    23    25    28    1
    24    28    29   ar
    25    29    30    1
    26    29    31   ar
    27    31    32   ar
    28    32    36    1
    29    36    37    2
    30    36    38   am
    31    38    40    1
    32    40    41    1
    33    40    42    1
    34    32    33   ar
    35    33    34   ar
    36    34    35    1
    37     6     7    1
    38     7     8    1
    39    21    17   ar
    40     8     3    1
    41    34    28   ar
    42     9    13    1
    43    24    27    1
    44    38    39    1
@<TRIPOS>MOLECULE
*****
 42 44 0 0 0
SMALL
GASTEIGER

@<TRIPOS>ATOM
      1 C         139.6087  138.3426  155.7228 C.3     1  UNL1        0.0592
      2 C         139.1572  136.9360  155.4633 C.3     1  UNL1        0.0174
      3 C         138.3729  140.4403  159.5073 C.3     1  UNL1        0.0800
      4 C         137.9232  140.9670  158.1768 C.3     1  UNL1        0.0372
      5 C         138.3351  140.2678  156.9153 C.3     1  UNL1        0.0738
      6 N         139.1968  139.0419  156.9844 N.3     1  UNL1       -0.2738
      7 C         139.6465  138.5152  158.3149 C.3     1  UNL1        0.0738
      8 C         139.2346  139.2145  159.5764 C.3     1  UNL1        0.0372
      9 N         137.7989  143.3094  162.1886 N.am    1  UNL1       -0.1773
     10 C         138.2108  142.6102  160.9271 C.2     1  UNL1        0.3266
     11 O         138.8725  143.3815  159.8238 O.2     1  UNL1       -0.2504
     12 N         137.9610  141.1396  160.7689 N.am    1  UNL1       -0.2600
     13 H         137.3646  142.8032  162.9127 H       1  UNL1        0.1841
     14 C         139.3882  145.2671  162.8144 C.3     1  UNL1        0.2056
     15 O         138.0487  144.7800  162.3468 O.3     1  UNL1       -0.2624
     16 C         137.2993  140.3683  161.8721 C.3     1  UNL1        0.1222
     17 C         138.1285  139.7624  162.9656 C.ar    1  UNL1        0.0047
     18 C         138.6850  138.3696  162.9812 C.ar    1  UNL1        0.0049
     19 C         139.4472  138.1894  164.2607 C.ar    1  UNL1        0.0352
     20 S         139.3616  139.4709  165.0356 S.2     1  UNL1       -0.0862
     21 C         138.5466  140.4430  164.2352 C.ar    1  UNL1        0.0328
     22 C         140.4721  139.0502  154.7208 C.3     1  UNL1        0.0372
     23 C         141.8504  139.5009  155.1041 C.3     1  UNL1        0.0911
     24 N         142.1223  139.9786  156.4997 N.am    1  UNL1       -0.3008
     25 C         143.4714  139.7595  157.1180 C.2     1  UNL1        0.2467
     26 O         144.5484  139.0626  156.3406 O.2     1  UNL1       -0.2701
     27 H         141.4154  140.4360  157.0099 H       1  UNL1        0.1497
     28 C         143.7433  140.2372  158.5136 C.ar    1  UNL1        0.0630
     29 C         144.2508  141.6297  158.7442 C.ar    1  UNL1       -0.0147
     30 C         144.4863  142.5446  157.5790 C.3     1  UNL1        0.0313
     31 C         144.5227  142.1074  160.1398 C.ar    1  UNL1        0.0196
     32 C         144.2872  141.1926  161.3049 C.ar    1  UNL1        0.1337
     33 N         143.7797  139.8000  161.0744 N.ar    1  UNL1       -0.2450
     34 C         143.5077  139.3222  159.6788 C.ar    1  UNL1        0.0635
     35 C         143.0003  137.9297  159.4482 C.3     1  UNL1        0.0522
     36 C         144.5591  141.6703  162.7006 C.2     1  UNL1        0.2635
     37 O         145.9653  141.7021  163.2218 O.2     1  UNL1       -0.2685
     38 N         143.4249  142.1162  163.5750 N.am    1  UNL1       -0.3013
     39 H         142.5020  142.0954  163.2329 H       1  UNL1        0.1497
     40 C         143.6968  142.5939  164.9707 C.3     1  UNL1        0.0720
     41 C         143.2029  141.8012  166.1443 C.3     1  UNL1        0.0213
     42 C         144.4626  143.8644  165.1926 C.3     1  UNL1        0.0213
@<TRIPOS>BOND
     1    14    15    1
     2    15     9    1
     3     9    10   am
     4    10    11    2
     5    10    12   am
     6    12    16    1
     7    16    17    1
     8    17    18   ar
     9    18    19   ar
    10    19    20   ar
    11    20    21   ar
    12    12     3    1
    13     3     4    1
    14     4     5    1
    15     5     6    1
    16     6     1    1
    17     1     2    1
    18     1    22    1
    19    22    23    1
    20    23    24    1
    21    24    25   am
    22    25    26    2
    23    25    28    1
    24    28    29   ar
    25    29    30    1
    26    29    31   ar
    27    31    32   ar
    28    32    36    1
    29    36    37    2
    30    36    38   am
    31    38    40    1
    32    40    41    1
    33    40    42    1
    34    32    33   ar
    35    33    34   ar
    36    34    35    1
    37     6     7    1
    38     7     8    1
    39    21    17   ar
    40     8     3    1
    41    34    28   ar
    42     9    13    1
    43    24    27    1
    44    38    39    1
@<TRIPOS>MOLECULE
*****
 42 44 0 0 0
SMALL
GASTEIGER

@<TRIPOS>ATOM
      1 C         140.4548  144.4853  164.1105 C.3     1  UNL1        0.0592
      2 C         141.3956  145.5499  163.6297 C.3     1  UNL1        0.0174
      3 C         142.0730  140.7646  166.0569 C.3     1  UNL1        0.0800
      4 C         143.0154  141.8005  165.5196 C.3     1  UNL1        0.0372
      5 C         142.4760  143.0407  164.8708 C.3     1  UNL1        0.0738
      6 N         140.9942  143.2450  164.7593 N.3     1  UNL1       -0.2738
      7 C         140.0518  142.2091  165.2966 C.3     1  UNL1        0.0738
      8 C         140.5912  140.9689  165.9454 C.3     1  UNL1        0.0372
      9 N         143.2336  138.1948  168.8496 N.am    1  UNL1       -0.1773
     10 C         142.6942  139.4350  168.2008 C.2     1  UNL1        0.3266
     11 O         142.2366  140.5859  169.0471 O.2     1  UNL1       -0.2504
     12 N         142.6124  139.5244  166.7057 N.am    1  UNL1       -0.2600
     13 H         143.5339  137.4395  168.2941 H       1  UNL1        0.1841
     14 C         143.8118  136.8480  170.9948 C.3     1  UNL1        0.2056
     15 O         143.3154  138.1054  170.3447 O.3     1  UNL1       -0.2624
     16 C         143.0700  138.3736  165.8594 C.3     1  UNL1        0.1222
     17 C         142.3917  138.0874  164.5524 C.ar    1  UNL1        0.0047
     18 C         141.1165  137.3186  164.3708 C.ar    1  UNL1        0.0049
     19 C         140.8061  137.2758  162.9038 C.ar    1  UNL1        0.0352
     20 S         141.8895  138.0180  162.1789 S.2     1  UNL1       -0.0862
     21 C         142.8694  138.5196  163.1979 C.ar    1  UNL1        0.0328
     22 C         138.9746  144.6607  163.9427 C.3     1  UNL1        0.0372
     23 C         138.2703  144.0212  162.7830 C.3     1  UNL1        0.0911
     24 N         138.9410  142.9243  162.0104 N.am    1  UNL1       -0.3008
     25 C         139.6700  143.2406  160.7381 C.2     1  UNL1        0.2467
     26 O         139.7281  144.6537  160.2384 O.2     1  UNL1       -0.2701
     27 H         138.9029  141.9968  162.3384 H       1  UNL1        0.1497
     28 C         140.3408  142.1437  159.9655 C.ar    1  UNL1        0.0630
     29 C         139.6074  141.4518  158.8549 C.ar    1  UNL1       -0.0147
     30 C         138.2032  141.8568  158.5169 C.3     1  UNL1        0.0313
     31 C         140.2782  140.3549  158.0824 C.ar    1  UNL1        0.0196
     32 C         141.6823  139.9499  158.4204 C.ar    1  UNL1        0.1337
     33 N         142.4158  140.6418  159.5310 N.ar    1  UNL1       -0.2450
     34 C         141.7450  141.7387  160.3036 C.ar    1  UNL1        0.0635
     35 C         142.4783  142.4305  161.4141 C.3     1  UNL1        0.0522
     36 C         142.3531  138.8530  157.6478 C.2     1  UNL1        0.2635
     37 O         143.1454  137.8035  158.3696 O.2     1  UNL1       -0.2685
     38 N         142.2315  138.8055  156.1535 N.am    1  UNL1       -0.3013
     39 H         141.7115  139.4943  155.6798 H       1  UNL1        0.1497
     40 C         142.9023  137.7086  155.3809 C.3     1  UNL1        0.0720
     41 C         142.0841  136.5996  154.7889 C.3     1  UNL1        0.0213
     42 C         144.3913  137.7207  155.2004 C.3     1  UNL1        0.0213
@<TRIPOS>BOND
     1    14    15    1
     2    15     9    1
     3     9    10   am
     4    10    11    2
     5    10    12   am
     6    12    16    1
     7    16    17    1
     8    17    18   ar
     9    18    19   ar
    10    19    20   ar
    11    20    21   ar
    12    12     3    1
    13     3     4    1
    14     4     5    1
    15     5     6    1
    16     6     1    1
    17     1     2    1
    18     1    22    1
    19    22    23    1
    20    23    24    1
    21    24    25   am
    22    25    26    2
    23    25    28    1
    24    28    29   ar
    25    29    30    1
    26    29    31   ar
    27    31    32   ar
    28    32    36    1
    29    36    37    2
    30    36    38   am
    31    38    40    1
    32    40    41    1
    33    40    42    1
    34    32    33   ar
    35    33    34   ar
    36    34    35    1
    37     6     7    1
    38     7     8    1
    39    21    17   ar
    40     8     3    1
    41    34    28   ar
    42     9    13    1
    43    24    27    1
    44    38    39    1
