@<TRIPOS>MOLECULE
*****
 38 43 0 0 0
SMALL
GASTEIGER

@<TRIPOS>ATOM
      1 C         142.8111  138.0889  159.4971 C.ar    1  UNL1        0.1233
      2 C         142.2346  137.8811  160.8662 C.ar    1  UNL1        0.1180
      3 N         142.7673  138.9597  161.7621 N.ar    1  UNL1       -0.2233
      4 N         143.6731  139.8342  160.9467 N.ar    1  UNL1       -0.0634
      5 N         143.7001  139.2960  159.5468 N.ar    1  UNL1       -0.1287
      6 C         142.4500  139.1334  163.2179 C.3     1  UNL1        0.1827
      7 C         143.5427  138.7518  164.1721 C.3     1  UNL1        0.0339
      8 C         143.5371  138.8083  165.6711 C.3     1  UNL1        0.0041
      9 C         142.4377  139.2603  166.5860 C.3     1  UNL1        0.0183
     10 C         142.8457  139.1572  168.0257 C.3     1  UNL1        0.0016
     11 C         141.8881  139.5612  169.1073 C.3     1  UNL1        0.0001
     12 C         140.5227  140.0683  168.7492 C.3     1  UNL1        0.0017
     13 C         140.1147  140.1715  167.3094 C.3     1  UNL1        0.0198
     14 C         141.0722  139.7675  166.2278 C.3     1  UNL1        0.0756
     15 N         140.4690  139.9479  164.8664 N.am    1  UNL1       -0.2755
     16 C         141.0821  139.6657  163.5268 C.2     1  UNL1        0.2483
     17 O         140.2124  139.9539  162.3392 O.2     1  UNL1       -0.2728
     18 C         139.0671  140.4810  164.8412 C.3     1  UNL1        0.1201
     19 C         138.8190  141.9236  164.5136 C.ar    1  UNL1       -0.0023
     20 C         139.4993  143.0002  165.3061 C.ar    1  UNL1       -0.0026
     21 C         139.2513  144.4429  164.9787 C.ar    1  UNL1       -0.0003
     22 C         138.3229  144.8089  163.8588 C.ar    1  UNL1       -0.0000
     23 C         137.6426  143.7322  163.0663 C.ar    1  UNL1       -0.0003
     24 C         137.8906  142.2895  163.3937 C.ar    1  UNL1       -0.0026
     25 C         143.0775  135.1395  156.8552 C.ar    1  UNL1        0.1547
     26 C         143.3434  135.9895  158.0621 C.ar    1  UNL1        0.0400
     27 C         142.5452  137.2388  158.2902 C.ar    1  UNL1        0.0241
     28 C         141.4810  137.6381  157.3113 C.ar    1  UNL1        0.0033
     29 C         141.2151  136.7880  156.1044 C.ar    1  UNL1        0.0207
     30 C         142.0133  135.5388  155.8763 C.ar    1  UNL1        0.0994
     31 N         141.7474  134.6887  154.6693 N.ar    1  UNL1       -0.2839
     32 C         141.9565  135.0957  153.2408 C.ar    1  UNL1        0.1826
     33 N         141.5640  133.9410  152.3677 N.ar    1  UNL1       -0.2280
     34 C         141.1123  132.8203  153.2564 C.ar    1  UNL1        0.0786
     35 C         140.6316  131.4739  152.8025 C.3     1  UNL1        0.0538
     36 C         141.2256  133.2824  154.6790 C.ar    1  UNL1        0.0963
     37 C         144.4631  133.1521  157.7933 C.3     1  UNL1        0.2525
     38 O         143.8757  133.8902  156.6271 O.3     1  UNL1       -0.4700
@<TRIPOS>BOND
     1    37    38    1
     2    38    25    1
     3    25    26   ar
     4    26    27   ar
     5    27     1    1
     6     1     2   ar
     7     2     3   ar
     8     3     6    1
     9     6     7    1
    10     7     8    1
    11     9     8    1
    12     9    10    1
    13    10    11    1
    14    11    12    1
    15    12    13    1
    16    14    13    1
    17    14    15    1
    18    15    18    1
    19    18    19    1
    20    19    20   ar
    21    20    21   ar
    22    21    22   ar
    23    22    23   ar
    24    23    24   ar
    25    15    16   am
    26    16    17    2
    27     3     4   ar
    28     4     5   ar
    29    27    28   ar
    30    28    29   ar
    31    29    30   ar
    32    30    31    1
    33    31    32   ar
    34    32    33   ar
    35    33    34   ar
    36    34    35    1
    37    34    36   ar
    38    30    25   ar
    39    36    31   ar
    40     5     1   ar
    41    16     6    1
    42    14     9    1
    43    24    19   ar
@<TRIPOS>MOLECULE
*****
 38 43 0 0 0
SMALL
GASTEIGER

@<TRIPOS>ATOM
      1 C         143.4909  139.6289  160.3701 C.ar    1  UNL1        0.1233
      2 C         143.2271  140.2192  161.7236 C.ar    1  UNL1        0.1180
      3 N         142.7744  139.1140  162.6311 N.ar    1  UNL1       -0.2233
      4 N         142.7583  137.8406  161.8384 N.ar    1  UNL1       -0.0634
      5 N         143.2012  138.1589  160.4411 N.ar    1  UNL1       -0.1287
      6 C         142.4028  139.2570  164.0773 C.3     1  UNL1        0.1827
      7 C         143.4425  138.8129  165.0633 C.3     1  UNL1        0.0339
      8 C         143.3768  138.8274  166.5618 C.3     1  UNL1        0.0041
      9 C         142.2554  139.2894  167.4444 C.3     1  UNL1        0.0183
     10 C         142.6000  139.1324  168.8958 C.3     1  UNL1        0.0016
     11 C         141.6119  139.5371  169.9493 C.3     1  UNL1        0.0001
     12 C         140.2792  140.0988  169.5514 C.3     1  UNL1        0.0017
     13 C         139.9345  140.2557  168.1000 C.3     1  UNL1        0.0198
     14 C         140.9226  139.8511  167.0466 C.3     1  UNL1        0.0756
     15 N         140.3822  140.0894  165.6677 N.am    1  UNL1       -0.2755
     16 C         141.0409  139.8251  164.3463 C.2     1  UNL1        0.2483
     17 O         140.2305  140.1750  163.1335 O.2     1  UNL1       -0.2728
     18 C         139.0002  140.6688  165.6016 C.3     1  UNL1        0.1201
     19 C         138.7864  142.0343  165.0184 C.ar    1  UNL1       -0.0023
     20 C         139.6340  143.1851  165.4733 C.ar    1  UNL1       -0.0026
     21 C         139.4203  144.5505  164.8902 C.ar    1  UNL1       -0.0003
     22 C         138.3589  144.7650  163.8522 C.ar    1  UNL1       -0.0000
     23 C         137.5112  143.6140  163.3973 C.ar    1  UNL1       -0.0003
     24 C         137.7249  142.2486  163.9804 C.ar    1  UNL1       -0.0026
     25 C         144.3236  140.4986  156.5886 C.ar    1  UNL1        0.1547
     26 C         143.8528  139.7501  157.8002 C.ar    1  UNL1        0.0400
     27 C         143.9618  140.3773  159.1584 C.ar    1  UNL1        0.0241
     28 C         144.5416  141.7529  159.3050 C.ar    1  UNL1        0.0033
     29 C         145.0125  142.5013  158.0933 C.ar    1  UNL1        0.0207
     30 C         144.9035  141.8742  156.7352 C.ar    1  UNL1        0.0994
     31 N         145.3743  142.6226  155.5235 N.ar    1  UNL1       -0.2839
     32 C         144.5000  143.3072  154.5150 C.ar    1  UNL1        0.1826
     33 N         145.3876  143.9255  153.4759 N.ar    1  UNL1       -0.2280
     34 C         146.8104  143.6232  153.8420 C.ar    1  UNL1        0.0786
     35 C         148.0277  144.0510  153.0770 C.3     1  UNL1        0.0538
     36 C         146.8022  142.8180  155.1075 C.ar    1  UNL1        0.0963
     37 C         144.8500  138.5385  154.9666 C.3     1  UNL1        0.2525
     38 O         144.2146  139.8714  155.2304 O.3     1  UNL1       -0.4700
@<TRIPOS>BOND
     1    37    38    1
     2    38    25    1
     3    25    26   ar
     4    26    27   ar
     5    27     1    1
     6     1     2   ar
     7     2     3   ar
     8     3     6    1
     9     6     7    1
    10     7     8    1
    11     9     8    1
    12     9    10    1
    13    10    11    1
    14    11    12    1
    15    12    13    1
    16    14    13    1
    17    14    15    1
    18    15    18    1
    19    18    19    1
    20    19    20   ar
    21    20    21   ar
    22    21    22   ar
    23    22    23   ar
    24    23    24   ar
    25    15    16   am
    26    16    17    2
    27     3     4   ar
    28     4     5   ar
    29    27    28   ar
    30    28    29   ar
    31    29    30   ar
    32    30    31    1
    33    31    32   ar
    34    32    33   ar
    35    33    34   ar
    36    34    35    1
    37    34    36   ar
    38    30    25   ar
    39    36    31   ar
    40     5     1   ar
    41    16     6    1
    42    14     9    1
    43    24    19   ar
@<TRIPOS>MOLECULE
*****
 38 43 0 0 0
SMALL
GASTEIGER

@<TRIPOS>ATOM
      1 C         142.4299  138.3813  158.2110 C.ar    1  UNL1        0.1233
      2 C         141.4500  138.9892  159.1702 C.ar    1  UNL1        0.1180
      3 N         142.1353  140.1199  159.8787 N.ar    1  UNL1       -0.2233
      4 N         143.5388  140.2107  159.3573 N.ar    1  UNL1       -0.0634
      5 N         143.7209  139.1362  158.3266 N.ar    1  UNL1       -0.1287
      6 C         141.5244  141.0044  160.9248 C.3     1  UNL1        0.1827
      7 C         140.9429  142.2946  160.4275 C.3     1  UNL1        0.0339
      8 C         140.2691  143.3808  161.2125 C.3     1  UNL1        0.0041
      9 C         140.0105  143.4451  162.6887 C.3     1  UNL1        0.0183
     10 C         139.3058  144.7141  163.0668 C.3     1  UNL1        0.0016
     11 C         138.9524  144.9771  164.5006 C.3     1  UNL1        0.0001
     12 C         139.3036  143.9711  165.5563 C.3     1  UNL1        0.0017
     13 C         140.0083  142.7021  165.1782 C.3     1  UNL1        0.0198
     14 C         140.3617  142.4391  163.7444 C.3     1  UNL1        0.0756
     15 N         141.0584  141.1203  163.5847 N.am    1  UNL1       -0.2755
     16 C         141.5758  140.4818  162.3299 C.2     1  UNL1        0.2483
     17 O         142.2313  139.1438  162.5030 O.2     1  UNL1       -0.2728
     18 C         141.2648  140.3363  164.8467 C.3     1  UNL1        0.1201
     19 C         140.1543  139.4893  165.3938 C.ar    1  UNL1       -0.0023
     20 C         139.7832  138.2066  164.7104 C.ar    1  UNL1       -0.0026
     21 C         138.6726  137.3595  165.2574 C.ar    1  UNL1       -0.0003
     22 C         137.9332  137.7951  166.4877 C.ar    1  UNL1       -0.0000
     23 C         138.3044  139.0778  167.1710 C.ar    1  UNL1       -0.0003
     24 C         139.4150  139.9250  166.6240 C.ar    1  UNL1       -0.0026
     25 C         142.8525  134.9040  156.3457 C.ar    1  UNL1        0.1547
     26 C         143.1172  136.0632  157.2599 C.ar    1  UNL1        0.0400
     27 C         142.1653  137.2219  157.2967 C.ar    1  UNL1        0.0241
     28 C         140.9487  137.2213  156.4192 C.ar    1  UNL1        0.0033
     29 C         140.6841  136.0620  155.5050 C.ar    1  UNL1        0.0207
     30 C         141.6360  134.9034  155.4682 C.ar    1  UNL1        0.0994
     31 N         141.3713  133.7440  154.5538 N.ar    1  UNL1       -0.2839
     32 C         141.4218  133.7737  153.0550 C.ar    1  UNL1        0.1826
     33 N         141.0914  132.3995  152.5528 N.ar    1  UNL1       -0.2280
     34 C         140.8366  131.5205  153.7411 C.ar    1  UNL1        0.0786
     35 C         140.4726  130.0658  153.7000 C.3     1  UNL1        0.0538
     36 C         141.0095  132.3514  154.9779 C.ar    1  UNL1        0.0963
     37 C         144.3127  133.1513  157.5890 C.3     1  UNL1        0.2525
     38 O         143.8044  133.7453  156.3089 O.3     1  UNL1       -0.4700
@<TRIPOS>BOND
     1    37    38    1
     2    38    25    1
     3    25    26   ar
     4    26    27   ar
     5    27     1    1
     6     1     2   ar
     7     2     3   ar
     8     3     6    1
     9     6     7    1
    10     7     8    1
    11     9     8    1
    12     9    10    1
    13    10    11    1
    14    11    12    1
    15    12    13    1
    16    14    13    1
    17    14    15    1
    18    15    18    1
    19    18    19    1
    20    19    20   ar
    21    20    21   ar
    22    21    22   ar
    23    22    23   ar
    24    23    24   ar
    25    15    16   am
    26    16    17    2
    27     3     4   ar
    28     4     5   ar
    29    27    28   ar
    30    28    29   ar
    31    29    30   ar
    32    30    31    1
    33    31    32   ar
    34    32    33   ar
    35    33    34   ar
    36    34    35    1
    37    34    36   ar
    38    30    25   ar
    39    36    31   ar
    40     5     1   ar
    41    16     6    1
    42    14     9    1
    43    24    19   ar
@<TRIPOS>MOLECULE
*****
 38 43 0 0 0
SMALL
GASTEIGER

@<TRIPOS>ATOM
      1 C         142.3722  137.6529  157.3914 C.ar    1  UNL1        0.1233
      2 C         142.5347  137.8755  158.8659 C.ar    1  UNL1        0.1180
      3 N         142.5639  139.3551  159.1109 N.ar    1  UNL1       -0.2233
      4 N         142.4193  140.0469  157.7879 N.ar    1  UNL1       -0.0634
      5 N         142.3009  138.9949  156.7252 N.ar    1  UNL1       -0.1287
      6 C         142.7116  140.0252  160.4448 C.3     1  UNL1        0.1827
      7 C         144.1110  140.4002  160.8333 C.3     1  UNL1        0.0339
      8 C         144.5847  141.0742  162.0867 C.3     1  UNL1        0.0041
      9 C         143.7762  141.5398  163.2613 C.3     1  UNL1        0.0183
     10 C         144.6452  142.1669  164.3108 C.3     1  UNL1        0.0016
     11 C         144.0320  142.7004  165.5715 C.3     1  UNL1        0.0001
     12 C         142.5499  142.6069  165.7826 C.3     1  UNL1        0.0017
     13 C         141.6809  141.9798  164.7331 C.3     1  UNL1        0.0198
     14 C         142.2941  141.4463  163.4724 C.3     1  UNL1        0.0756
     15 N         141.2545  140.8641  162.5611 N.am    1  UNL1       -0.2755
     16 C         141.4402  140.2316  161.2137 C.2     1  UNL1        0.2483
     17 O         140.1894  139.7407  160.5471 O.2     1  UNL1       -0.2728
     18 C         139.8424  140.9220  163.0637 C.3     1  UNL1        0.1201
     19 C         139.3530  139.8986  164.0452 C.ar    1  UNL1       -0.0023
     20 C         139.7542  138.4614  163.8927 C.ar    1  UNL1       -0.0026
     21 C         139.2649  137.4379  164.8742 C.ar    1  UNL1       -0.0003
     22 C         138.3744  137.8518  166.0081 C.ar    1  UNL1       -0.0000
     23 C         137.9732  139.2892  166.1606 C.ar    1  UNL1       -0.0003
     24 C         138.4626  140.3126  165.1791 C.ar    1  UNL1       -0.0026
     25 C         143.2021  133.9124  156.3572 C.ar    1  UNL1        0.1547
     26 C         143.2797  135.2433  157.0447 C.ar    1  UNL1        0.0400
     27 C         142.2947  136.3220  156.7040 C.ar    1  UNL1        0.0241
     28 C         141.2321  136.0698  155.6758 C.ar    1  UNL1        0.0033
     29 C         141.1545  134.7388  154.9883 C.ar    1  UNL1        0.0207
     30 C         142.1395  133.6602  155.3290 C.ar    1  UNL1        0.0994
     31 N         142.0619  132.3292  154.6415 N.ar    1  UNL1       -0.2839
     32 C         143.0676  131.7756  153.6761 C.ar    1  UNL1        0.1826
     33 N         142.5922  130.4225  153.2367 N.ar    1  UNL1       -0.2280
     34 C         141.2927  130.1399  153.9305 C.ar    1  UNL1        0.0786
     35 C         140.4661  128.8970  153.7822 C.3     1  UNL1        0.0538
     36 C         140.9649  131.3183  154.7988 C.ar    1  UNL1        0.0963
     37 C         144.8770  132.8415  158.0299 C.3     1  UNL1        0.2525
     38 O         144.1872  132.8337  156.6980 O.3     1  UNL1       -0.4700
@<TRIPOS>BOND
     1    37    38    1
     2    38    25    1
     3    25    26   ar
     4    26    27   ar
     5    27     1    1
     6     1     2   ar
     7     2     3   ar
     8     3     6    1
     9     6     7    1
    10     7     8    1
    11     9     8    1
    12     9    10    1
    13    10    11    1
    14    11    12    1
    15    12    13    1
    16    14    13    1
    17    14    15    1
    18    15    18    1
    19    18    19    1
    20    19    20   ar
    21    20    21   ar
    22    21    22   ar
    23    22    23   ar
    24    23    24   ar
    25    15    16   am
    26    16    17    2
    27     3     4   ar
    28     4     5   ar
    29    27    28   ar
    30    28    29   ar
    31    29    30   ar
    32    30    31    1
    33    31    32   ar
    34    32    33   ar
    35    33    34   ar
    36    34    35    1
    37    34    36   ar
    38    30    25   ar
    39    36    31   ar
    40     5     1   ar
    41    16     6    1
    42    14     9    1
    43    24    19   ar
@<TRIPOS>MOLECULE
*****
 38 43 0 0 0
SMALL
GASTEIGER

@<TRIPOS>ATOM
      1 C         142.7397  140.4184  157.8860 C.ar    1  UNL1        0.1233
      2 C         142.6427  140.2545  159.3739 C.ar    1  UNL1        0.1180
      3 N         141.2093  139.9762  159.7172 N.ar    1  UNL1       -0.2233
      4 N         140.4204  139.9680  158.4415 N.ar    1  UNL1       -0.0634
      5 N         141.3662  140.2413  157.3097 N.ar    1  UNL1       -0.1287
      6 C         140.6611  139.7463  161.0944 C.3     1  UNL1        0.1827
      7 C         140.1943  138.3506  161.3845 C.3     1  UNL1        0.0339
      8 C         139.6033  137.8065  162.6512 C.3     1  UNL1        0.0041
      9 C         139.3331  138.5236  163.9407 C.3     1  UNL1        0.0183
     10 C         138.7313  137.6054  164.9628 C.3     1  UNL1        0.0016
     11 C         138.3837  138.1255  166.3260 C.3     1  UNL1        0.0001
     12 C         138.6378  139.5639  166.6672 C.3     1  UNL1        0.0017
     13 C         139.2396  140.4822  165.6452 C.3     1  UNL1        0.0198
     14 C         139.5873  139.9620  164.2820 C.3     1  UNL1        0.0756
     15 N         140.1743  141.0385  163.4179 N.am    1  UNL1       -0.2755
     16 C         140.6522  140.9426  161.9993 C.2     1  UNL1        0.2483
     17 O         141.1927  142.2104  161.4075 O.2     1  UNL1       -0.2728
     18 C         140.3001  142.3897  164.0570 C.3     1  UNL1        0.1201
     19 C         141.6527  142.9197  164.4307 C.ar    1  UNL1       -0.0023
     20 C         142.5348  142.1373  165.3579 C.ar    1  UNL1       -0.0026
     21 C         143.8874  142.6672  165.7316 C.ar    1  UNL1       -0.0003
     22 C         144.3578  143.9796  165.1782 C.ar    1  UNL1       -0.0000
     23 C         143.4756  144.7621  164.2511 C.ar    1  UNL1       -0.0003
     24 C         142.1230  144.2322  163.8773 C.ar    1  UNL1       -0.0026
     25 C         146.0915  142.1798  156.6977 C.ar    1  UNL1        0.1547
     26 C         144.8408  141.8898  157.4732 C.ar    1  UNL1        0.0400
     27 C         143.9905  140.7084  157.1106 C.ar    1  UNL1        0.0241
     28 C         144.3911  139.8171  155.9727 C.ar    1  UNL1        0.0033
     29 C         145.6420  140.1071  155.1973 C.ar    1  UNL1        0.0207
     30 C         146.4921  141.2884  155.5598 C.ar    1  UNL1        0.0994
     31 N         147.7430  141.5784  154.7843 N.ar    1  UNL1       -0.2839
     32 C         147.8132  141.9665  153.3371 C.ar    1  UNL1        0.1826
     33 N         149.2568  142.1592  152.9784 N.ar    1  UNL1       -0.2280
     34 C         150.0789  141.8902  154.2038 C.ar    1  UNL1        0.0786
     35 C         151.5741  141.9667  154.2968 C.3     1  UNL1        0.0538
     36 C         149.1433  141.5313  155.3200 C.ar    1  UNL1        0.0963
     37 C         147.8440  143.2970  158.2569 C.3     1  UNL1        0.2525
     38 O         146.9418  143.3612  157.0603 O.3     1  UNL1       -0.4700
@<TRIPOS>BOND
     1    37    38    1
     2    38    25    1
     3    25    26   ar
     4    26    27   ar
     5    27     1    1
     6     1     2   ar
     7     2     3   ar
     8     3     6    1
     9     6     7    1
    10     7     8    1
    11     9     8    1
    12     9    10    1
    13    10    11    1
    14    11    12    1
    15    12    13    1
    16    14    13    1
    17    14    15    1
    18    15    18    1
    19    18    19    1
    20    19    20   ar
    21    20    21   ar
    22    21    22   ar
    23    22    23   ar
    24    23    24   ar
    25    15    16   am
    26    16    17    2
    27     3     4   ar
    28     4     5   ar
    29    27    28   ar
    30    28    29   ar
    31    29    30   ar
    32    30    31    1
    33    31    32   ar
    34    32    33   ar
    35    33    34   ar
    36    34    35    1
    37    34    36   ar
    38    30    25   ar
    39    36    31   ar
    40     5     1   ar
    41    16     6    1
    42    14     9    1
    43    24    19   ar
@<TRIPOS>MOLECULE
*****
 38 43 0 0 0
SMALL
GASTEIGER

@<TRIPOS>ATOM
      1 C         143.1245  136.6142  156.4231 C.ar    1  UNL1        0.1233
      2 C         142.3944  137.4039  157.4688 C.ar    1  UNL1        0.1180
      3 N         143.0357  138.7568  157.5597 N.ar    1  UNL1       -0.2233
      4 N         144.1620  138.8034  156.5702 N.ar    1  UNL1       -0.0634
      5 N         144.2169  137.4792  155.8677 N.ar    1  UNL1       -0.1287
      6 C         142.6230  139.8682  158.4788 C.3     1  UNL1        0.1827
      7 C         141.5606  140.7872  157.9527 C.3     1  UNL1        0.0339
      8 C         140.9401  141.9785  158.6204 C.3     1  UNL1        0.0041
      9 C         141.2288  142.5451  159.9789 C.3     1  UNL1        0.0183
     10 C         140.3812  143.7499  160.2616 C.3     1  UNL1        0.0016
     11 C         140.5141  144.4699  161.5708 C.3     1  UNL1        0.0001
     12 C         141.4945  143.9850  162.5973 C.3     1  UNL1        0.0017
     13 C         142.3421  142.7802  162.3146 C.3     1  UNL1        0.0198
     14 C         142.2092  142.0603  161.0054 C.3     1  UNL1        0.0756
     15 N         143.1431  140.8891  160.9268 N.am    1  UNL1       -0.2755
     16 C         143.3273  139.9135  159.8024 C.2     1  UNL1        0.2483
     17 O         144.3511  138.8415  160.0319 O.2     1  UNL1       -0.2728
     18 C         144.0072  140.6637  162.1321 C.3     1  UNL1        0.1201
     19 C         143.5166  139.7993  163.2556 C.ar    1  UNL1       -0.0023
     20 C         142.2992  138.9436  163.0669 C.ar    1  UNL1       -0.0026
     21 C         141.8086  138.0792  164.1904 C.ar    1  UNL1       -0.0003
     22 C         142.5354  138.0705  165.5025 C.ar    1  UNL1       -0.0000
     23 C         143.7529  138.9263  165.6912 C.ar    1  UNL1       -0.0003
     24 C         144.2435  139.7907  164.5677 C.ar    1  UNL1       -0.0026
     25 C         142.8408  132.6566  156.5017 C.ar    1  UNL1        0.1547
     26 C         143.1491  134.0640  156.9188 C.ar    1  UNL1        0.0400
     27 C         142.8162  135.2067  156.0060 C.ar    1  UNL1        0.0241
     28 C         142.1749  134.9420  154.6761 C.ar    1  UNL1        0.0033
     29 C         141.8666  133.5346  154.2590 C.ar    1  UNL1        0.0207
     30 C         142.1995  132.3919  155.1718 C.ar    1  UNL1        0.0994
     31 N         141.8912  130.9844  154.7546 N.ar    1  UNL1       -0.2839
     32 C         142.8709  129.9959  154.1949 C.ar    1  UNL1        0.1826
     33 N         142.1342  128.7190  153.9184 N.ar    1  UNL1       -0.2280
     34 C         140.6993  128.9181  154.3071 C.ar    1  UNL1        0.0786
     35 C         139.6063  127.8965  154.1981 C.3     1  UNL1        0.0538
     36 C         140.5490  130.3182  154.8240 C.ar    1  UNL1        0.0963
     37 C         144.6067  131.1535  157.6732 C.3     1  UNL1        0.2525
     38 O         143.1738  131.5138  157.4145 O.3     1  UNL1       -0.4700
@<TRIPOS>BOND
     1    37    38    1
     2    38    25    1
     3    25    26   ar
     4    26    27   ar
     5    27     1    1
     6     1     2   ar
     7     2     3   ar
     8     3     6    1
     9     6     7    1
    10     7     8    1
    11     9     8    1
    12     9    10    1
    13    10    11    1
    14    11    12    1
    15    12    13    1
    16    14    13    1
    17    14    15    1
    18    15    18    1
    19    18    19    1
    20    19    20   ar
    21    20    21   ar
    22    21    22   ar
    23    22    23   ar
    24    23    24   ar
    25    15    16   am
    26    16    17    2
    27     3     4   ar
    28     4     5   ar
    29    27    28   ar
    30    28    29   ar
    31    29    30   ar
    32    30    31    1
    33    31    32   ar
    34    32    33   ar
    35    33    34   ar
    36    34    35    1
    37    34    36   ar
    38    30    25   ar
    39    36    31   ar
    40     5     1   ar
    41    16     6    1
    42    14     9    1
    43    24    19   ar
@<TRIPOS>MOLECULE
*****
 38 43 0 0 0
SMALL
GASTEIGER

@<TRIPOS>ATOM
      1 C         142.3405  138.9336  160.8852 C.ar    1  UNL1        0.1233
      2 C         141.3460  138.4095  159.8921 C.ar    1  UNL1        0.1180
      3 N         141.9972  138.4075  158.5408 N.ar    1  UNL1       -0.2233
      4 N         143.3942  138.9305  158.6988 N.ar    1  UNL1       -0.0634
      5 N         143.6064  139.2556  160.1477 N.ar    1  UNL1       -0.1287
      6 C         141.3629  137.9610  157.2570 C.3     1  UNL1        0.1827
      7 C         140.0456  138.5977  156.9260 C.3     1  UNL1        0.0339
      8 C         139.1699  138.3674  155.7302 C.3     1  UNL1        0.0041
      9 C         139.3950  137.4437  154.5700 C.3     1  UNL1        0.0183
     10 C         138.2674  137.5179  153.5836 C.3     1  UNL1        0.0016
     11 C         138.2963  136.6704  152.3464 C.3     1  UNL1        0.0001
     12 C         139.4528  135.7487  152.0955 C.3     1  UNL1        0.0017
     13 C         140.5804  135.6745  153.0818 C.3     1  UNL1        0.0198
     14 C         140.5515  136.5220  154.3191 C.3     1  UNL1        0.0756
     15 N         141.7685  136.2965  155.1664 N.am    1  UNL1       -0.2755
     16 C         142.1297  136.9369  156.4739 C.2     1  UNL1        0.2483
     17 O         143.4294  136.4947  157.0782 O.2     1  UNL1       -0.2728
     18 C         142.7549  135.2986  154.6361 C.3     1  UNL1        0.1201
     19 C         142.8034  133.9137  155.2106 C.ar    1  UNL1       -0.0023
     20 C         141.6598  132.9691  154.9880 C.ar    1  UNL1       -0.0026
     21 C         141.7082  131.5842  155.5624 C.ar    1  UNL1       -0.0003
     22 C         142.9002  131.1442  156.3595 C.ar    1  UNL1       -0.0000
     23 C         144.0439  132.0889  156.5821 C.ar    1  UNL1       -0.0003
     24 C         143.9955  133.4738  156.0077 C.ar    1  UNL1       -0.0026
     25 C         141.9037  140.6485  164.4374 C.ar    1  UNL1        0.1547
     26 C         142.1346  140.4766  162.9653 C.ar    1  UNL1        0.0400
     27 C         142.1096  139.1056  162.3573 C.ar    1  UNL1        0.0241
     28 C         141.8536  137.9065  163.2214 C.ar    1  UNL1        0.0033
     29 C         141.6227  138.0785  164.6935 C.ar    1  UNL1        0.0207
     30 C         141.6477  139.4494  165.3015 C.ar    1  UNL1        0.0994
     31 N         141.4168  139.6213  166.7736 N.ar    1  UNL1       -0.2839
     32 C         142.4311  139.4019  167.8568 C.ar    1  UNL1        0.1826
     33 N         141.7722  139.6878  169.1736 N.ar    1  UNL1       -0.2280
     34 C         140.3507  140.0840  168.9044 C.ar    1  UNL1        0.0786
     35 C         139.3284  140.4559  169.9371 C.3     1  UNL1        0.0538
     36 C         140.1311  140.0429  167.4211 C.ar    1  UNL1        0.0963
     37 C         143.2220  142.5980  165.5381 C.3     1  UNL1        0.2525
     38 O         141.9287  142.0196  165.0454 O.3     1  UNL1       -0.4700
@<TRIPOS>BOND
     1    37    38    1
     2    38    25    1
     3    25    26   ar
     4    26    27   ar
     5    27     1    1
     6     1     2   ar
     7     2     3   ar
     8     3     6    1
     9     6     7    1
    10     7     8    1
    11     9     8    1
    12     9    10    1
    13    10    11    1
    14    11    12    1
    15    12    13    1
    16    14    13    1
    17    14    15    1
    18    15    18    1
    19    18    19    1
    20    19    20   ar
    21    20    21   ar
    22    21    22   ar
    23    22    23   ar
    24    23    24   ar
    25    15    16   am
    26    16    17    2
    27     3     4   ar
    28     4     5   ar
    29    27    28   ar
    30    28    29   ar
    31    29    30   ar
    32    30    31    1
    33    31    32   ar
    34    32    33   ar
    35    33    34   ar
    36    34    35    1
    37    34    36   ar
    38    30    25   ar
    39    36    31   ar
    40     5     1   ar
    41    16     6    1
    42    14     9    1
    43    24    19   ar
@<TRIPOS>MOLECULE
*****
 38 43 0 0 0
SMALL
GASTEIGER

@<TRIPOS>ATOM
      1 C         143.5520  139.6119  158.4936 C.ar    1  UNL1        0.1233
      2 C         143.0337  140.0937  159.8162 C.ar    1  UNL1        0.1180
      3 N         142.2341  138.9844  160.4327 N.ar    1  UNL1       -0.2233
      4 N         142.2582  137.8170  159.4911 N.ar    1  UNL1       -0.0634
      5 N         143.0727  138.2048  158.2927 N.ar    1  UNL1       -0.1287
      6 C         141.5335  139.0338  161.7581 C.3     1  UNL1        0.1827
      7 C         140.3326  138.1451  161.8930 C.3     1  UNL1        0.0339
      8 C         139.4280  137.9686  163.0764 C.3     1  UNL1        0.0041
      9 C         139.5008  138.6370  164.4173 C.3     1  UNL1        0.0183
     10 C         138.3963  138.1748  165.3208 C.3     1  UNL1        0.0016
     11 C         138.2873  138.7226  166.7129 C.3     1  UNL1        0.0001
     12 C         139.2828  139.7328  167.2015 C.3     1  UNL1        0.0017
     13 C         140.3873  140.1950  166.2980 C.3     1  UNL1        0.0198
     14 C         140.4963  139.6472  164.9059 C.3     1  UNL1        0.0756
     15 N         141.6647  140.2383  164.1742 N.am    1  UNL1       -0.2755
     16 C         142.1264  139.9654  162.7734 C.2     1  UNL1        0.2483
     17 O         143.3414  140.7243  162.3290 O.2     1  UNL1       -0.2728
     18 C         142.4793  141.2341  164.9455 C.3     1  UNL1        0.1201
     19 C         142.4332  142.6874  164.5766 C.ar    1  UNL1       -0.0023
     20 C         141.1144  143.3547  164.3210 C.ar    1  UNL1       -0.0026
     21 C         141.0682  144.8079  163.9521 C.ar    1  UNL1       -0.0003
     22 C         142.3408  145.5938  163.8390 C.ar    1  UNL1       -0.0000
     23 C         143.6596  144.9264  164.0947 C.ar    1  UNL1       -0.0003
     24 C         143.7059  143.4732  164.4635 C.ar    1  UNL1       -0.0026
     25 C         145.4635  140.6887  155.1866 C.ar    1  UNL1        0.1547
     26 C         144.6149  139.9016  156.1407 C.ar    1  UNL1        0.0400
     27 C         144.4005  140.3990  157.5395 C.ar    1  UNL1        0.0241
     28 C         145.0347  141.6835  157.9841 C.ar    1  UNL1        0.0033
     29 C         145.8833  142.4706  157.0300 C.ar    1  UNL1        0.0207
     30 C         146.0977  141.9732  155.6313 C.ar    1  UNL1        0.0994
     31 N         146.9463  142.7604  154.6771 N.ar    1  UNL1       -0.2839
     32 C         146.5141  143.9726  153.9066 C.ar    1  UNL1        0.1826
     33 N         147.6767  144.4349  153.0794 N.ar    1  UNL1       -0.2280
     34 C         148.8275  143.5084  153.3385 C.ar    1  UNL1        0.0786
     35 C         150.1905  143.6006  152.7190 C.3     1  UNL1        0.0538
     36 C         148.3761  142.4735  154.3260 C.ar    1  UNL1        0.0963
     37 C         144.7981  140.6792  152.6752 C.3     1  UNL1        0.2525
     38 O         145.6778  140.1913  153.7878 O.3     1  UNL1       -0.4700
@<TRIPOS>BOND
     1    37    38    1
     2    38    25    1
     3    25    26   ar
     4    26    27   ar
     5    27     1    1
     6     1     2   ar
     7     2     3   ar
     8     3     6    1
     9     6     7    1
    10     7     8    1
    11     9     8    1
    12     9    10    1
    13    10    11    1
    14    11    12    1
    15    12    13    1
    16    14    13    1
    17    14    15    1
    18    15    18    1
    19    18    19    1
    20    19    20   ar
    21    20    21   ar
    22    21    22   ar
    23    22    23   ar
    24    23    24   ar
    25    15    16   am
    26    16    17    2
    27     3     4   ar
    28     4     5   ar
    29    27    28   ar
    30    28    29   ar
    31    29    30   ar
    32    30    31    1
    33    31    32   ar
    34    32    33   ar
    35    33    34   ar
    36    34    35    1
    37    34    36   ar
    38    30    25   ar
    39    36    31   ar
    40     5     1   ar
    41    16     6    1
    42    14     9    1
    43    24    19   ar
@<TRIPOS>MOLECULE
*****
 38 43 0 0 0
SMALL
GASTEIGER

@<TRIPOS>ATOM
      1 C         138.8153  139.1646  160.7656 C.ar    1  UNL1        0.1233
      2 C         139.3996  139.8123  161.9859 C.ar    1  UNL1        0.1180
      3 N         139.0803  138.9462  163.1683 N.ar    1  UNL1       -0.2233
      4 N         138.2987  137.7633  162.6787 N.ar    1  UNL1       -0.0634
      5 N         138.1349  137.8983  161.1938 N.ar    1  UNL1       -0.1287
      6 C         139.4736  139.2158  164.5905 C.3     1  UNL1        0.1827
      7 C         138.3400  139.4088  165.5538 C.3     1  UNL1        0.0339
      8 C         138.4014  139.6903  167.0258 C.3     1  UNL1        0.0041
      9 C         139.6114  139.8485  167.8982 C.3     1  UNL1        0.0183
     10 C         139.2282  140.1241  169.3220 C.3     1  UNL1        0.0016
     11 C         140.2926  140.3153  170.3615 C.3     1  UNL1        0.0001
     12 C         141.7400  140.2309  169.9772 C.3     1  UNL1        0.0017
     13 C         142.1232  139.9553  168.5534 C.3     1  UNL1        0.0198
     14 C         141.0589  139.7641  167.5139 C.3     1  UNL1        0.0756
     15 N         141.6538  139.5007  166.1624 N.am    1  UNL1       -0.2755
     16 C         140.9484  139.2567  164.8613 C.2     1  UNL1        0.2483
     17 O         141.8348  139.0227  163.6742 O.2     1  UNL1       -0.2728
     18 C         143.1526  139.4784  166.1042 C.3     1  UNL1        0.1201
     19 C         143.8922  140.5759  165.3980 C.ar    1  UNL1       -0.0023
     20 C         144.9568  140.2389  164.3966 C.ar    1  UNL1       -0.0026
     21 C         145.6965  141.3362  163.6904 C.ar    1  UNL1       -0.0003
     22 C         145.3716  142.7705  163.9857 C.ar    1  UNL1       -0.0000
     23 C         144.3069  143.1075  164.9872 C.ar    1  UNL1       -0.0003
     24 C         143.5672  142.0101  165.6934 C.ar    1  UNL1       -0.0026
     25 C         137.8182  140.9613  157.3705 C.ar    1  UNL1        0.1547
     26 C         137.7363  140.4351  158.7727 C.ar    1  UNL1        0.0400
     27 C         138.8971  139.6909  159.3634 C.ar    1  UNL1        0.0241
     28 C         140.1396  139.4731  158.5519 C.ar    1  UNL1        0.0033
     29 C         140.2214  139.9994  157.1496 C.ar    1  UNL1        0.0207
     30 C         139.0607  140.7435  156.5589 C.ar    1  UNL1        0.0994
     31 N         139.1426  141.2698  155.1566 N.ar    1  UNL1       -0.2839
     32 C         138.7671  140.5229  153.9112 C.ar    1  UNL1        0.1826
     33 N         139.0068  141.4269  152.7385 N.ar    1  UNL1       -0.2280
     34 C         139.5304  142.7325  153.2591 C.ar    1  UNL1        0.0786
     35 C         139.9044  143.9258  152.4307 C.3     1  UNL1        0.0538
     36 C         139.6143  142.6354  154.7536 C.ar    1  UNL1        0.0963
     37 C         135.5931  140.9612  156.0292 C.3     1  UNL1        0.2525
     38 O         136.6574  141.7054  156.7797 O.3     1  UNL1       -0.4700
@<TRIPOS>BOND
     1    37    38    1
     2    38    25    1
     3    25    26   ar
     4    26    27   ar
     5    27     1    1
     6     1     2   ar
     7     2     3   ar
     8     3     6    1
     9     6     7    1
    10     7     8    1
    11     9     8    1
    12     9    10    1
    13    10    11    1
    14    11    12    1
    15    12    13    1
    16    14    13    1
    17    14    15    1
    18    15    18    1
    19    18    19    1
    20    19    20   ar
    21    20    21   ar
    22    21    22   ar
    23    22    23   ar
    24    23    24   ar
    25    15    16   am
    26    16    17    2
    27     3     4   ar
    28     4     5   ar
    29    27    28   ar
    30    28    29   ar
    31    29    30   ar
    32    30    31    1
    33    31    32   ar
    34    32    33   ar
    35    33    34   ar
    36    34    35    1
    37    34    36   ar
    38    30    25   ar
    39    36    31   ar
    40     5     1   ar
    41    16     6    1
    42    14     9    1
    43    24    19   ar
