@<TRIPOS>MOLECULE
*****
 27 29 0 0 0
SMALL
GASTEIGER

@<TRIPOS>ATOM
      1 N         142.3372  138.5700  163.0517 N.3     1  UNL1       -0.2700
      2 C         142.7039  139.6130  162.0379 C.3     1  UNL1        0.0897
      3 C         143.6432  140.7222  162.4091 C.3     1  UNL1        0.0897
      4 N         144.2157  140.7883  163.7939 N.3     1  UNL1       -0.2700
      5 C         143.8490  139.7453  164.8077 C.3     1  UNL1        0.0897
      6 C         142.9098  138.6362  164.4366 C.3     1  UNL1        0.0897
      7 C         141.3981  137.4609  162.6806 C.3     1  UNL1        0.0770
      8 C         139.9163  137.6929  162.7056 C.3     1  UNL1        0.0467
      9 C         139.0278  139.7326  164.0474 C.ar    1  UNL1        0.1347
     10 C         138.3775  140.2956  165.2763 C.ar    1  UNL1        0.0366
     11 C         137.9654  139.3819  166.3922 C.ar    1  UNL1        0.0031
     12 C         138.2035  137.9053  166.2793 C.ar    1  UNL1       -0.0001
     13 C         138.8538  137.3423  165.0505 C.ar    1  UNL1       -0.0012
     14 C         139.2660  138.2560  163.9345 C.ar    1  UNL1        0.0132
     15 O         139.4400  140.6463  162.9314 O.3     1  UNL1       -0.4727
     16 C         138.4043  141.2195  162.0102 C.3     1  UNL1        0.2434
     17 F         137.3393  143.0012  163.5726 F       1  UNL1       -0.2302
     18 C         137.8899  142.6108  162.2330 C.3     1  UNL1        0.2403
     19 C         145.1548  141.8974  164.1650 C.3     1  UNL1        0.0769
     20 C         144.6511  143.0792  164.9393 C.3     1  UNL1        0.0437
     21 C         143.2847  143.6317  164.6602 C.ar    1  UNL1       -0.0206
     22 C         142.0732  142.9658  165.2423 C.ar    1  UNL1       -0.0019
     23 C         140.7069  143.5182  164.9632 C.ar    1  UNL1        0.0293
     24 C         140.5521  144.7365  164.1019 C.ar    1  UNL1        0.1401
     25 F         139.1857  145.2889  163.8228 F       1  UNL1       -0.2042
     26 C         141.7636  145.4023  163.5198 C.ar    1  UNL1        0.0293
     27 C         143.1299  144.8499  163.7989 C.ar    1  UNL1       -0.0019
@<TRIPOS>BOND
     1    17    18    1
     2    18    16    1
     3    16    15    1
     4    15     9    1
     5     9    10   ar
     6    10    11   ar
     7    11    12   ar
     8    12    13   ar
     9    13    14   ar
    10    14     8    1
    11     8     7    1
    12     7     1    1
    13     1     2    1
    14     2     3    1
    15     3     4    1
    16     4    19    1
    17    19    20    1
    18    20    21    1
    19    21    22   ar
    20    22    23   ar
    21    23    24   ar
    22    24    25    1
    23    24    26   ar
    24    26    27   ar
    25     4     5    1
    26     5     6    1
    27    14     9   ar
    28     6     1    1
    29    27    21   ar
@<TRIPOS>MOLECULE
*****
 27 29 0 0 0
SMALL
GASTEIGER

@<TRIPOS>ATOM
      1 N         140.7112  138.9569  160.9791 N.3     1  UNL1       -0.2700
      2 C         140.8825  140.4433  161.0846 C.3     1  UNL1        0.0897
      3 C         142.2013  141.0181  161.5095 C.3     1  UNL1        0.0897
      4 N         143.3488  140.1063  161.8290 N.3     1  UNL1       -0.2700
      5 C         143.1775  138.6199  161.7235 C.3     1  UNL1        0.0897
      6 C         141.8587  138.0452  161.2986 C.3     1  UNL1        0.0897
      7 C         139.3925  138.3822  160.5542 C.3     1  UNL1        0.0770
      8 C         138.1743  138.5916  161.4039 C.3     1  UNL1        0.0467
      9 C         137.9059  140.1913  163.4334 C.ar    1  UNL1        0.1347
     10 C         138.0531  140.4638  164.9011 C.ar    1  UNL1        0.0366
     11 C         138.6160  139.4090  165.8070 C.ar    1  UNL1        0.0031
     12 C         139.0316  138.0818  165.2452 C.ar    1  UNL1       -0.0001
     13 C         138.8844  137.8093  163.7776 C.ar    1  UNL1       -0.0012
     14 C         138.3215  138.8641  162.8717 C.ar    1  UNL1        0.0132
     15 O         137.3431  141.2461  162.5275 O.3     1  UNL1       -0.4727
     16 C         138.1075  142.5141  162.2871 C.3     1  UNL1        0.2434
     17 F         137.5870  143.8082  164.4791 F       1  UNL1       -0.2302
     18 C         137.7005  143.7787  162.9836 C.3     1  UNL1        0.2403
     19 C         144.6675  140.6811  162.2539 C.3     1  UNL1        0.0769
     20 C         145.1319  140.5247  163.6716 C.3     1  UNL1        0.0437
     21 C         144.1319  140.3124  164.7694 C.ar    1  UNL1       -0.0206
     22 C         143.8916  138.9334  165.3086 C.ar    1  UNL1       -0.0019
     23 C         142.8916  138.7211  166.4063 C.ar    1  UNL1        0.0293
     24 C         142.1319  139.8877  166.9647 C.ar    1  UNL1        0.1401
     25 F         141.1319  139.6754  168.0624 F       1  UNL1       -0.2042
     26 C         142.3722  141.2666  166.4255 C.ar    1  UNL1        0.0293
     27 C         143.3722  141.4790  165.3278 C.ar    1  UNL1       -0.0019
@<TRIPOS>BOND
     1    17    18    1
     2    18    16    1
     3    16    15    1
     4    15     9    1
     5     9    10   ar
     6    10    11   ar
     7    11    12   ar
     8    12    13   ar
     9    13    14   ar
    10    14     8    1
    11     8     7    1
    12     7     1    1
    13     1     2    1
    14     2     3    1
    15     3     4    1
    16     4    19    1
    17    19    20    1
    18    20    21    1
    19    21    22   ar
    20    22    23   ar
    21    23    24   ar
    22    24    25    1
    23    24    26   ar
    24    26    27   ar
    25     4     5    1
    26     5     6    1
    27    14     9   ar
    28     6     1    1
    29    27    21   ar
@<TRIPOS>MOLECULE
*****
 27 29 0 0 0
SMALL
GASTEIGER

@<TRIPOS>ATOM
      1 N         142.0396  138.4567  163.3645 N.3     1  UNL1       -0.2700
      2 C         142.7599  138.5215  164.6786 C.3     1  UNL1        0.0897
      3 C         143.7872  139.5879  164.9189 C.3     1  UNL1        0.0897
      4 N         144.0941  140.5893  163.8452 N.3     1  UNL1       -0.2700
      5 C         143.3737  140.5245  162.5311 C.3     1  UNL1        0.0897
      6 C         142.3465  139.4582  162.2907 C.3     1  UNL1        0.0897
      7 C         141.0123  137.3904  163.1241 C.3     1  UNL1        0.0770
      8 C         139.6190  137.5583  163.6536 C.3     1  UNL1        0.0467
      9 C         138.8792  139.8719  164.5756 C.ar    1  UNL1        0.1347
     10 C         138.1582  141.1741  164.3900 C.ar    1  UNL1        0.0366
     11 C         137.4560  141.4649  163.0968 C.ar    1  UNL1        0.0031
     12 C         137.4748  140.4535  161.9892 C.ar    1  UNL1       -0.0001
     13 C         138.1958  139.1514  162.1748 C.ar    1  UNL1       -0.0012
     14 C         138.8980  138.8606  163.4680 C.ar    1  UNL1        0.0132
     15 O         139.5814  139.5811  165.8688 O.3     1  UNL1       -0.4727
     16 C         138.7916  139.1634  167.0736 C.3     1  UNL1        0.2434
     17 F         137.7258  136.8548  166.5405 F       1  UNL1       -0.2302
     18 C         137.5755  138.3006  166.9110 C.3     1  UNL1        0.2403
     19 C         145.1213  141.6556  164.0855 C.3     1  UNL1        0.0769
     20 C         144.7393  142.9174  164.8010 C.3     1  UNL1        0.0437
     21 C         143.3772  143.5119  164.5976 C.ar    1  UNL1       -0.0206
     22 C         143.2141  144.7423  163.7553 C.ar    1  UNL1       -0.0019
     23 C         141.8521  145.3369  163.5519 C.ar    1  UNL1        0.0293
     24 C         140.6532  144.7010  164.1908 C.ar    1  UNL1        0.1401
     25 F         139.2911  145.2956  163.9873 F       1  UNL1       -0.2042
     26 C         140.8163  143.4706  165.0331 C.ar    1  UNL1        0.0293
     27 C         142.1783  142.8761  165.2365 C.ar    1  UNL1       -0.0019
@<TRIPOS>BOND
     1    17    18    1
     2    18    16    1
     3    16    15    1
     4    15     9    1
     5     9    10   ar
     6    10    11   ar
     7    11    12   ar
     8    12    13   ar
     9    13    14   ar
    10    14     8    1
    11     8     7    1
    12     7     1    1
    13     1     2    1
    14     2     3    1
    15     3     4    1
    16     4    19    1
    17    19    20    1
    18    20    21    1
    19    21    22   ar
    20    22    23   ar
    21    23    24   ar
    22    24    25    1
    23    24    26   ar
    24    26    27   ar
    25     4     5    1
    26     5     6    1
    27    14     9   ar
    28     6     1    1
    29    27    21   ar
@<TRIPOS>MOLECULE
*****
 27 29 0 0 0
SMALL
GASTEIGER

@<TRIPOS>ATOM
      1 N         138.4032  143.3137  162.4793 N.3     1  UNL1       -0.2700
      2 C         137.5897  142.4108  163.3585 C.3     1  UNL1        0.0897
      3 C         137.3357  140.9913  162.9454 C.3     1  UNL1        0.0897
      4 N         137.8952  140.4748  161.6530 N.3     1  UNL1       -0.2700
      5 C         138.7086  141.3777  160.7738 C.3     1  UNL1        0.0897
      6 C         138.9627  142.7971  161.1869 C.3     1  UNL1        0.0897
      7 C         138.6572  144.7331  162.8924 C.3     1  UNL1        0.0770
      8 C         139.4054  145.0230  164.1598 C.3     1  UNL1        0.0467
      9 C         141.1349  143.3648  165.1645 C.ar    1  UNL1        0.1347
     10 C         142.5537  142.9035  165.3200 C.ar    1  UNL1        0.0366
     11 C         143.6618  143.6390  164.6264 C.ar    1  UNL1        0.0031
     12 C         143.3512  144.8359  163.7773 C.ar    1  UNL1       -0.0001
     13 C         141.9324  145.2972  163.6218 C.ar    1  UNL1       -0.0012
     14 C         140.8243  144.5616  164.3154 C.ar    1  UNL1        0.0132
     15 O         140.0268  142.6292  165.8580 O.3     1  UNL1       -0.4727
     16 C         140.0423  141.1304  165.9153 C.3     1  UNL1        0.2434
     17 F         139.0639  139.3981  167.5862 F       1  UNL1       -0.2302
     18 C         140.0955  140.4310  167.2412 C.3     1  UNL1        0.2403
     19 C         137.6411  139.0554  161.2399 C.3     1  UNL1        0.0769
     20 C         138.7806  138.0835  161.1554 C.3     1  UNL1        0.0437
     21 C         139.7638  137.9806  162.2836 C.ar    1  UNL1       -0.0206
     22 C         141.2291  138.1640  162.0204 C.ar    1  UNL1       -0.0019
     23 C         142.2124  138.0612  163.1485 C.ar    1  UNL1        0.0293
     24 C         141.7303  137.7749  164.5397 C.ar    1  UNL1        0.1401
     25 F         142.7136  137.6721  165.6679 F       1  UNL1       -0.2042
     26 C         140.2650  137.5915  164.8029 C.ar    1  UNL1        0.0293
     27 C         139.2818  137.6944  163.6749 C.ar    1  UNL1       -0.0019
@<TRIPOS>BOND
     1    17    18    1
     2    18    16    1
     3    16    15    1
     4    15     9    1
     5     9    10   ar
     6    10    11   ar
     7    11    12   ar
     8    12    13   ar
     9    13    14   ar
    10    14     8    1
    11     8     7    1
    12     7     1    1
    13     1     2    1
    14     2     3    1
    15     3     4    1
    16     4    19    1
    17    19    20    1
    18    20    21    1
    19    21    22   ar
    20    22    23   ar
    21    23    24   ar
    22    24    25    1
    23    24    26   ar
    24    26    27   ar
    25     4     5    1
    26     5     6    1
    27    14     9   ar
    28     6     1    1
    29    27    21   ar
@<TRIPOS>MOLECULE
*****
 27 29 0 0 0
SMALL
GASTEIGER

@<TRIPOS>ATOM
      1 N         137.8586  140.6493  161.4314 N.3     1  UNL1       -0.2700
      2 C         137.3520  141.1551  162.7495 C.3     1  UNL1        0.0897
      3 C         137.6808  142.5493  163.1945 C.3     1  UNL1        0.0897
      4 N         138.5163  143.4378  162.3212 N.3     1  UNL1       -0.2700
      5 C         139.0230  142.9321  161.0031 C.3     1  UNL1        0.0897
      6 C         138.6941  141.5379  160.5582 C.3     1  UNL1        0.0897
      7 C         137.5298  139.2551  160.9864 C.3     1  UNL1        0.0770
      8 C         137.9823  138.0809  161.8028 C.3     1  UNL1        0.0467
      9 C         139.6901  137.6803  163.7194 C.ar    1  UNL1        0.1347
     10 C         141.1089  137.6032  164.2000 C.ar    1  UNL1        0.0366
     11 C         142.2388  137.8497  163.2447 C.ar    1  UNL1        0.0031
     12 C         141.9499  138.1733  161.8088 C.ar    1  UNL1       -0.0001
     13 C         140.5311  138.2504  161.3282 C.ar    1  UNL1       -0.0012
     14 C         139.4012  138.0038  162.2835 C.ar    1  UNL1        0.0132
     15 O         138.5602  137.4337  164.6747 O.3     1  UNL1       -0.4727
     16 C         138.4544  138.2397  165.9353 C.3     1  UNL1        0.2434
     17 F         139.5551  140.4580  165.1493 F       1  UNL1       -0.2302
     18 C         138.4536  139.7382  165.8696 C.3     1  UNL1        0.2403
     19 C         138.8452  144.8320  162.7662 C.3     1  UNL1        0.0769
     20 C         139.5302  145.0576  164.0814 C.3     1  UNL1        0.0437
     21 C         140.9311  144.5644  164.2917 C.ar    1  UNL1       -0.0206
     22 C         141.1719  143.2857  165.0381 C.ar    1  UNL1       -0.0019
     23 C         142.5728  142.7925  165.2484 C.ar    1  UNL1        0.0293
     24 C         143.7328  143.5779  164.7124 C.ar    1  UNL1        0.1401
     25 F         145.1338  143.0846  164.9227 F       1  UNL1       -0.2042
     26 C         143.4920  144.8565  163.9660 C.ar    1  UNL1        0.0293
     27 C         142.0912  145.3497  163.7557 C.ar    1  UNL1       -0.0019
@<TRIPOS>BOND
     1    17    18    1
     2    18    16    1
     3    16    15    1
     4    15     9    1
     5     9    10   ar
     6    10    11   ar
     7    11    12   ar
     8    12    13   ar
     9    13    14   ar
    10    14     8    1
    11     8     7    1
    12     7     1    1
    13     1     2    1
    14     2     3    1
    15     3     4    1
    16     4    19    1
    17    19    20    1
    18    20    21    1
    19    21    22   ar
    20    22    23   ar
    21    23    24   ar
    22    24    25    1
    23    24    26   ar
    24    26    27   ar
    25     4     5    1
    26     5     6    1
    27    14     9   ar
    28     6     1    1
    29    27    21   ar
@<TRIPOS>MOLECULE
*****
 27 29 0 0 0
SMALL
GASTEIGER

@<TRIPOS>ATOM
      1 N         138.6265  143.3496  162.7234 N.3     1  UNL1       -0.2700
      2 C         137.6270  142.4772  163.4235 C.3     1  UNL1        0.0897
      3 C         137.2823  141.1304  162.8602 C.3     1  UNL1        0.0897
      4 N         137.9370  140.6560  161.5968 N.3     1  UNL1       -0.2700
      5 C         138.9365  141.5284  160.8967 C.3     1  UNL1        0.0897
      6 C         139.2812  142.8751  161.4600 C.3     1  UNL1        0.0897
      7 C         138.9712  144.6964  163.2867 C.3     1  UNL1        0.0770
      8 C         140.1169  144.8378  164.2445 C.3     1  UNL1        0.0467
      9 C         141.8325  142.8867  164.2423 C.ar    1  UNL1        0.1347
     10 C         142.4172  141.6704  164.8970 C.ar    1  UNL1        0.0366
     11 C         141.8713  141.1889  166.2086 C.ar    1  UNL1        0.0031
     12 C         140.7406  141.9238  166.8654 C.ar    1  UNL1       -0.0001
     13 C         140.1559  143.1401  166.2107 C.ar    1  UNL1       -0.0012
     14 C         140.7018  143.6215  164.8992 C.ar    1  UNL1        0.0132
     15 O         142.3784  143.3681  162.9307 O.3     1  UNL1       -0.4727
     16 C         143.5585  144.2936  162.9039 C.3     1  UNL1        0.2434
     17 F         144.5819  144.5179  165.2814 F       1  UNL1       -0.2302
     18 C         143.8819  145.1316  164.1052 C.3     1  UNL1        0.2403
     19 C         137.5923  139.3092  161.0335 C.3     1  UNL1        0.0769
     20 C         137.8752  138.0690  161.8284 C.3     1  UNL1        0.0437
     21 C         139.0809  138.0075  162.7186 C.ar    1  UNL1       -0.0206
     22 C         140.4487  137.8643  162.1198 C.ar    1  UNL1       -0.0019
     23 C         141.6544  137.8028  163.0100 C.ar    1  UNL1        0.0293
     24 C         141.4923  137.8844  164.4989 C.ar    1  UNL1        0.1401
     25 F         142.6981  137.8229  165.3892 F       1  UNL1       -0.2042
     26 C         140.1245  138.0277  165.0977 C.ar    1  UNL1        0.0293
     27 C         138.9188  138.0892  164.2076 C.ar    1  UNL1       -0.0019
@<TRIPOS>BOND
     1    17    18    1
     2    18    16    1
     3    16    15    1
     4    15     9    1
     5     9    10   ar
     6    10    11   ar
     7    11    12   ar
     8    12    13   ar
     9    13    14   ar
    10    14     8    1
    11     8     7    1
    12     7     1    1
    13     1     2    1
    14     2     3    1
    15     3     4    1
    16     4    19    1
    17    19    20    1
    18    20    21    1
    19    21    22   ar
    20    22    23   ar
    21    23    24   ar
    22    24    25    1
    23    24    26   ar
    24    26    27   ar
    25     4     5    1
    26     5     6    1
    27    14     9   ar
    28     6     1    1
    29    27    21   ar
@<TRIPOS>MOLECULE
*****
 27 29 0 0 0
SMALL
GASTEIGER

@<TRIPOS>ATOM
      1 N         138.2860  140.0866  162.1424 N.3     1  UNL1       -0.2700
      2 C         137.3670  140.8979  163.0069 C.3     1  UNL1        0.0897
      3 C         137.5801  142.3760  163.1476 C.3     1  UNL1        0.0897
      4 N         138.7120  143.0429  162.4238 N.3     1  UNL1       -0.2700
      5 C         139.6310  142.2316  161.5593 C.3     1  UNL1        0.0897
      6 C         139.4180  140.7535  161.4186 C.3     1  UNL1        0.0897
      7 C         138.0730  138.6085  162.0017 C.3     1  UNL1        0.0770
      8 C         138.5933  137.6725  163.0520 C.3     1  UNL1        0.0467
      9 C         141.1307  137.8466  163.5825 C.ar    1  UNL1        0.1347
     10 C         142.2406  138.2826  164.4924 C.ar    1  UNL1        0.0366
     11 C         141.9232  138.9806  165.7816 C.ar    1  UNL1        0.0031
     12 C         140.4958  139.2425  166.1610 C.ar    1  UNL1       -0.0001
     13 C         139.3859  138.8064  165.2511 C.ar    1  UNL1       -0.0012
     14 C         139.7033  138.1085  163.9619 C.ar    1  UNL1        0.0132
     15 O         141.4482  137.1487  162.2933 O.3     1  UNL1       -0.4727
     16 C         141.9464  137.9355  161.1175 C.3     1  UNL1        0.2434
     17 F         144.4530  137.3071  161.3861 F       1  UNL1       -0.2302
     18 C         143.3963  138.3085  161.0247 C.3     1  UNL1        0.2403
     19 C         138.9250  144.5209  162.5645 C.3     1  UNL1        0.0769
     20 C         139.6333  145.0653  163.7694 C.3     1  UNL1        0.0437
     21 C         141.0116  144.5818  164.1113 C.ar    1  UNL1       -0.0206
     22 C         141.1887  143.3246  164.9100 C.ar    1  UNL1       -0.0019
     23 C         142.5668  142.8411  165.2519 C.ar    1  UNL1        0.0293
     24 C         143.7678  143.6148  164.7951 C.ar    1  UNL1        0.1401
     25 F         145.1461  143.1313  165.1370 F       1  UNL1       -0.2042
     26 C         143.5907  144.8721  163.9964 C.ar    1  UNL1        0.0293
     27 C         142.2126  145.3556  163.6545 C.ar    1  UNL1       -0.0019
@<TRIPOS>BOND
     1    17    18    1
     2    18    16    1
     3    16    15    1
     4    15     9    1
     5     9    10   ar
     6    10    11   ar
     7    11    12   ar
     8    12    13   ar
     9    13    14   ar
    10    14     8    1
    11     8     7    1
    12     7     1    1
    13     1     2    1
    14     2     3    1
    15     3     4    1
    16     4    19    1
    17    19    20    1
    18    20    21    1
    19    21    22   ar
    20    22    23   ar
    21    23    24   ar
    22    24    25    1
    23    24    26   ar
    24    26    27   ar
    25     4     5    1
    26     5     6    1
    27    14     9   ar
    28     6     1    1
    29    27    21   ar
@<TRIPOS>MOLECULE
*****
 27 29 0 0 0
SMALL
GASTEIGER

@<TRIPOS>ATOM
      1 N         139.4234  142.9887  162.6964 N.3     1  UNL1       -0.2700
      2 C         140.6287  142.6255  161.8807 C.3     1  UNL1        0.0897
      3 C         141.9903  143.0885  162.3072 C.3     1  UNL1        0.0897
      4 N         142.1465  143.9148  163.5493 N.3     1  UNL1       -0.2700
      5 C         140.9412  144.2780  164.3650 C.3     1  UNL1        0.0897
      6 C         139.5797  143.8150  163.9386 C.3     1  UNL1        0.0897
      7 C         138.0619  142.5257  162.2700 C.3     1  UNL1        0.0770
      8 C         137.3009  141.5514  163.1194 C.3     1  UNL1        0.0467
      9 C         138.1898  139.1263  162.8382 C.ar    1  UNL1        0.1347
     10 C         138.8840  137.9234  163.4047 C.ar    1  UNL1        0.0366
     11 C         139.3836  137.9425  164.8189 C.ar    1  UNL1        0.0031
     12 C         139.1890  139.1646  165.6667 C.ar    1  UNL1       -0.0001
     13 C         138.4948  140.3675  165.1002 C.ar    1  UNL1       -0.0012
     14 C         137.9952  140.3484  163.6859 C.ar    1  UNL1        0.0132
     15 O         137.6902  139.1072  161.4240 O.3     1  UNL1       -0.4727
     16 C         138.6069  139.4879  160.2995 C.3     1  UNL1        0.2434
     17 F         140.7722  138.0973  160.6573 F       1  UNL1       -0.2302
     18 C         139.6178  138.5038  159.7899 C.3     1  UNL1        0.2403
     19 C         143.5080  144.3778  163.9758 C.3     1  UNL1        0.0769
     20 C         144.2858  143.5889  164.9870 C.3     1  UNL1        0.0437
     21 C         143.9775  142.1370  165.2041 C.ar    1  UNL1       -0.0206
     22 C         144.6535  141.0932  164.3654 C.ar    1  UNL1       -0.0019
     23 C         144.3452  139.6414  164.5824 C.ar    1  UNL1        0.0293
     24 C         143.3609  139.2334  165.6381 C.ar    1  UNL1        0.1401
     25 F         143.0525  137.7815  165.8552 F       1  UNL1       -0.2042
     26 C         142.6849  140.2772  166.4769 C.ar    1  UNL1        0.0293
     27 C         142.9932  141.7290  166.2599 C.ar    1  UNL1       -0.0019
@<TRIPOS>BOND
     1    17    18    1
     2    18    16    1
     3    16    15    1
     4    15     9    1
     5     9    10   ar
     6    10    11   ar
     7    11    12   ar
     8    12    13   ar
     9    13    14   ar
    10    14     8    1
    11     8     7    1
    12     7     1    1
    13     1     2    1
    14     2     3    1
    15     3     4    1
    16     4    19    1
    17    19    20    1
    18    20    21    1
    19    21    22   ar
    20    22    23   ar
    21    23    24   ar
    22    24    25    1
    23    24    26   ar
    24    26    27   ar
    25     4     5    1
    26     5     6    1
    27    14     9   ar
    28     6     1    1
    29    27    21   ar
@<TRIPOS>MOLECULE
*****
 27 29 0 0 0
SMALL
GASTEIGER

@<TRIPOS>ATOM
      1 N         138.5354  141.9266  163.7571 N.3     1  UNL1       -0.2700
      2 C         138.2170  140.8250  164.7241 C.3     1  UNL1        0.0897
      3 C         138.5792  139.4077  164.3922 C.3     1  UNL1        0.0897
      4 N         139.2597  139.0920  163.0933 N.3     1  UNL1       -0.2700
      5 C         139.5781  140.1936  162.1263 C.3     1  UNL1        0.0897
      6 C         139.2160  141.6108  162.4581 C.3     1  UNL1        0.0897
      7 C         138.1733  143.3439  164.0889 C.3     1  UNL1        0.0770
      8 C         139.1167  144.1910  164.8905 C.3     1  UNL1        0.0467
      9 C         141.0746  142.8956  166.0034 C.ar    1  UNL1        0.1347
     10 C         142.5316  142.5441  166.0636 C.ar    1  UNL1        0.0366
     11 C         143.4876  143.1366  165.0711 C.ar    1  UNL1        0.0031
     12 C         142.9867  144.0805  164.0185 C.ar    1  UNL1       -0.0001
     13 C         141.5298  144.4319  163.9583 C.ar    1  UNL1       -0.0012
     14 C         140.5737  143.8395  164.9507 C.ar    1  UNL1        0.0132
     15 O         140.1185  142.3032  166.9958 O.3     1  UNL1       -0.4727
     16 C         140.5428  141.1416  167.8448 C.3     1  UNL1        0.2434
     17 F         138.6866  140.1798  169.3873 F       1  UNL1       -0.2302
     18 C         139.5616  140.0562  168.1752 C.3     1  UNL1        0.2403
     19 C         139.6219  137.6747  162.7615 C.3     1  UNL1        0.0769
     20 C         140.8507  137.0552  163.3583 C.3     1  UNL1        0.0437
     21 C         142.0580  137.9011  163.6356 C.ar    1  UNL1       -0.0206
     22 C         142.4198  138.2515  165.0485 C.ar    1  UNL1       -0.0019
     23 C         143.6271  139.0973  165.3258 C.ar    1  UNL1        0.0293
     24 C         144.4725  139.5929  164.1903 C.ar    1  UNL1        0.1401
     25 F         145.6799  140.4388  164.4676 F       1  UNL1       -0.2042
     26 C         144.1107  139.2425  162.7773 C.ar    1  UNL1        0.0293
     27 C         142.9035  138.3967  162.5000 C.ar    1  UNL1       -0.0019
@<TRIPOS>BOND
     1    17    18    1
     2    18    16    1
     3    16    15    1
     4    15     9    1
     5     9    10   ar
     6    10    11   ar
     7    11    12   ar
     8    12    13   ar
     9    13    14   ar
    10    14     8    1
    11     8     7    1
    12     7     1    1
    13     1     2    1
    14     2     3    1
    15     3     4    1
    16     4    19    1
    17    19    20    1
    18    20    21    1
    19    21    22   ar
    20    22    23   ar
    21    23    24   ar
    22    24    25    1
    23    24    26   ar
    24    26    27   ar
    25     4     5    1
    26     5     6    1
    27    14     9   ar
    28     6     1    1
    29    27    21   ar
