@<TRIPOS>MOLECULE
*****
 45 49 0 0 0
SMALL
GASTEIGER

@<TRIPOS>ATOM
      1 C         141.5332  137.7289  158.0149 C.3     1  UNL1        0.0473
      2 C         140.2108  138.0417  157.3798 C.3     1  UNL1        0.0038
      3 C         139.4000  139.2047  157.8695 C.3     1  UNL1        0.0005
      4 C         139.6227  139.7457  159.2508 C.3     1  UNL1        0.0047
      5 C         138.5624  139.5844  160.2994 C.3     1  UNL1        0.0261
      6 C         138.6865  139.2234  164.2496 C.ar    1  UNL1        0.1342
      7 C         139.6619  138.0938  164.4005 C.ar    1  UNL1        0.0365
      8 C         140.2708  137.4611  163.1843 C.ar    1  UNL1        0.0028
      9 C         139.9043  137.9580  161.8173 C.ar    1  UNL1       -0.0044
     10 C         138.9289  139.0875  161.6664 C.ar    1  UNL1       -0.0232
     11 C         138.3200  139.7203  162.8826 C.ar    1  UNL1        0.0082
     12 C         137.3446  140.8498  162.7316 C.3     1  UNL1        0.0350
     13 C         137.7164  142.2282  163.1919 C.3     1  UNL1        0.0465
     14 C         137.9342  143.3209  162.1877 C.2     1  UNL1        0.0507
     15 O         138.0743  142.9852  160.7325 O.co2   1  UNL1       -0.5492
     16 O         138.0120  144.7494  162.6387 O.co2   1  UNL1       -0.5492
     17 O         138.0777  139.8561  165.4658 O.3     1  UNL1       -0.4758
     18 C         138.1928  139.1803  166.8000 C.3     1  UNL1        0.2058
     19 C         139.3961  139.4227  167.6621 C.3     1  UNL1        0.0532
     20 C         139.4294  140.6014  168.5892 C.3     1  UNL1        0.0455
     21 O         140.0657  140.8844  171.0922 O.co2   1  UNL1       -0.5492
     22 C         139.0996  140.4228  170.0416 C.2     1  UNL1        0.0505
     23 O         137.8039  139.7828  170.4433 O.co2   1  UNL1       -0.5492
     24 C         142.8070  138.0274  157.2811 C.3     1  UNL1        0.2054
     25 O         143.6937  139.1458  157.7425 O.3     1  UNL1       -0.4755
     26 C         143.1472  140.2135  158.6433 C.ar    1  UNL1        0.1386
     27 C         142.6729  141.5132  158.0640 C.ar    1  UNL1        0.0369
     28 C         142.1263  142.5808  158.9649 C.ar    1  UNL1        0.0035
     29 C         142.0542  142.3487  160.4450 C.ar    1  UNL1        0.0002
     30 C         142.5286  141.0489  161.0243 C.ar    1  UNL1        0.0031
     31 C         143.0751  139.9813  160.1235 C.ar    1  UNL1        0.0369
     32 C         142.4564  140.8167  162.5046 C.ar    1  UNL1        0.0033
     33 C         141.6101  141.7090  163.3633 C.ar    1  UNL1        0.0033
     34 C         141.5380  141.4768  164.8435 C.ar    1  UNL1        0.0402
     35 C         142.3122  140.3524  165.4649 C.ar    1  UNL1        0.1764
     36 C         143.1585  139.4600  164.6061 C.ar    1  UNL1        0.1764
     37 C         143.2307  139.6922  163.1260 C.ar    1  UNL1        0.0402
     38 O         143.8056  138.4393  165.4946 O.3     1  UNL1       -0.4346
     39 C         143.3591  138.7009  166.9026 C.3     1  UNL1        0.4294
     40 O         142.4361  139.8832  166.8842 O.3     1  UNL1       -0.4346
     41 C         141.6519  143.8807  158.3856 C.ar    1  UNL1        0.0071
     42 C         140.3739  144.5857  158.7312 C.ar    1  UNL1        0.0075
     43 C         140.3044  145.8444  157.9183 C.ar    1  UNL1        0.0355
     44 S         141.5396  145.9173  157.0702 S.2     1  UNL1       -0.0859
     45 C         142.3724  144.7036  157.3591 C.ar    1  UNL1        0.0354
@<TRIPOS>UNITY_ATOM_ATTR
15 1
charge -1
21 1
charge -1
@<TRIPOS>BOND
     1    21    22   ar
     2    22    23   ar
     3    22    20    1
     4    20    19    1
     5    19    18    1
     6    18    17    1
     7    17     6    1
     8     6     7   ar
     9     7     8   ar
    10     8     9   ar
    11     9    10   ar
    12    10     5    1
    13     5     4    1
    14     4     3    1
    15     3     2    1
    16     2     1    1
    17     1    24    1
    18    24    25    1
    19    25    26    1
    20    26    27   ar
    21    27    28   ar
    22    28    41    1
    23    41    42   ar
    24    42    43   ar
    25    43    44   ar
    26    44    45   ar
    27    28    29   ar
    28    29    30   ar
    29    30    32    1
    30    32    33   ar
    31    33    34   ar
    32    34    35   ar
    33    35    36   ar
    34    36    37   ar
    35    36    38    1
    36    38    39    1
    37    39    40    1
    38    30    31   ar
    39    10    11   ar
    40    11    12    1
    41    12    13    1
    42    13    14    1
    43    14    15   ar
    44    14    16   ar
    45    11     6   ar
    46    31    26   ar
    47    45    41   ar
    48    37    32   ar
    49    40    35    1
@<TRIPOS>MOLECULE
*****
 45 49 0 0 0
SMALL
GASTEIGER

@<TRIPOS>ATOM
      1 C         143.3356  143.0350  159.3271 C.3     1  UNL1        0.0473
      2 C         143.5384  142.8419  160.8007 C.3     1  UNL1        0.0038
      3 C         144.8454  142.3157  161.3153 C.3     1  UNL1        0.0005
      4 C         144.8624  141.1976  162.3151 C.3     1  UNL1        0.0047
      5 C         143.6045  140.4352  162.6090 C.3     1  UNL1        0.0261
      6 C         141.9399  140.7035  166.2016 C.ar    1  UNL1        0.1342
      7 C         142.4958  139.4777  166.8639 C.ar    1  UNL1        0.0365
      8 C         143.4213  138.5711  166.1078 C.ar    1  UNL1        0.0028
      9 C         143.7908  138.8903  164.6895 C.ar    1  UNL1       -0.0044
     10 C         143.2349  140.1160  164.0273 C.ar    1  UNL1       -0.0232
     11 C         142.3094  141.0227  164.7833 C.ar    1  UNL1        0.0082
     12 C         141.7536  142.2484  164.1210 C.3     1  UNL1        0.0350
     13 C         142.1652  143.6100  164.5970 C.3     1  UNL1        0.0465
     14 C         143.5745  144.0815  164.3929 C.2     1  UNL1        0.0507
     15 O         144.6871  143.4961  165.2110 O.co2   1  UNL1       -0.5492
     16 O         143.8711  145.1385  163.3708 O.co2   1  UNL1       -0.5492
     17 O         141.0144  141.6101  166.9577 O.3     1  UNL1       -0.4758
     18 C         141.5014  142.3273  168.1818 C.3     1  UNL1        0.2058
     19 C         140.5214  142.7965  169.2158 C.3     1  UNL1        0.0532
     20 C         139.6458  141.8054  169.9236 C.3     1  UNL1        0.0455
     21 O         141.5142  141.1879  171.6200 O.co2   1  UNL1       -0.5492
     22 C         140.2457  140.8375  170.9000 C.2     1  UNL1        0.0505
     23 O         139.5773  139.5193  171.1562 O.co2   1  UNL1       -0.5492
     24 C         142.0730  143.6667  158.8202 C.3     1  UNL1        0.2054
     25 O         140.8560  142.8231  158.5810 O.3     1  UNL1       -0.4755
     26 C         140.8676  141.3687  158.9479 C.ar    1  UNL1        0.1386
     27 C         141.2281  140.3385  157.9190 C.ar    1  UNL1        0.0369
     28 C         141.2397  138.8841  158.2859 C.ar    1  UNL1        0.0035
     29 C         140.8910  138.4599  159.6817 C.ar    1  UNL1        0.0002
     30 C         140.5305  139.4901  160.7107 C.ar    1  UNL1        0.0031
     31 C         140.5189  140.9445  160.3438 C.ar    1  UNL1        0.0369
     32 C         140.1817  139.0659  162.1066 C.ar    1  UNL1        0.0033
     33 C         140.7880  137.8224  162.6862 C.ar    1  UNL1        0.0033
     34 C         140.4393  137.3982  164.0820 C.ar    1  UNL1        0.0402
     35 C         139.4842  138.2176  164.8983 C.ar    1  UNL1        0.1764
     36 C         138.8778  139.4612  164.3188 C.ar    1  UNL1        0.1764
     37 C         139.2266  139.8854  162.9229 C.ar    1  UNL1        0.0402
     38 O         137.9745  140.0625  165.3543 O.3     1  UNL1       -0.4346
     39 C         138.0226  139.1905  166.5739 C.3     1  UNL1        0.4294
     40 O         138.9556  138.0503  166.2921 O.3     1  UNL1       -0.4346
     41 C         141.6001  137.8538  157.2569 C.ar    1  UNL1        0.0071
     42 C         142.9791  137.3364  156.9727 C.ar    1  UNL1        0.0075
     43 C         142.8760  136.3229  155.8717 C.ar    1  UNL1        0.0355
     44 S         141.4333  136.2139  155.4755 S.2     1  UNL1       -0.0859
     45 C         140.6448  137.1600  156.3316 C.ar    1  UNL1        0.0354
@<TRIPOS>UNITY_ATOM_ATTR
15 1
charge -1
21 1
charge -1
@<TRIPOS>BOND
     1    21    22   ar
     2    22    23   ar
     3    22    20    1
     4    20    19    1
     5    19    18    1
     6    18    17    1
     7    17     6    1
     8     6     7   ar
     9     7     8   ar
    10     8     9   ar
    11     9    10   ar
    12    10     5    1
    13     5     4    1
    14     4     3    1
    15     3     2    1
    16     2     1    1
    17     1    24    1
    18    24    25    1
    19    25    26    1
    20    26    27   ar
    21    27    28   ar
    22    28    41    1
    23    41    42   ar
    24    42    43   ar
    25    43    44   ar
    26    44    45   ar
    27    28    29   ar
    28    29    30   ar
    29    30    32    1
    30    32    33   ar
    31    33    34   ar
    32    34    35   ar
    33    35    36   ar
    34    36    37   ar
    35    36    38    1
    36    38    39    1
    37    39    40    1
    38    30    31   ar
    39    10    11   ar
    40    11    12    1
    41    12    13    1
    42    13    14    1
    43    14    15   ar
    44    14    16   ar
    45    11     6   ar
    46    31    26   ar
    47    45    41   ar
    48    37    32   ar
    49    40    35    1
@<TRIPOS>MOLECULE
*****
 45 49 0 0 0
SMALL
GASTEIGER

@<TRIPOS>ATOM
      1 C         140.3194  145.7399  160.3249 C.3     1  UNL1        0.0473
      2 C         140.2328  145.1794  161.7136 C.3     1  UNL1        0.0038
      3 C         138.9931  145.3898  162.5314 C.3     1  UNL1        0.0005
      4 C         138.2427  144.2095  163.0732 C.3     1  UNL1        0.0047
      5 C         138.7197  142.8181  162.7789 C.3     1  UNL1        0.0261
      6 C         140.7495  140.9666  165.6428 C.ar    1  UNL1        0.1342
      7 C         139.7094  140.0168  166.1587 C.ar    1  UNL1        0.0365
      8 C         138.3394  140.0008  165.5481 C.ar    1  UNL1        0.0028
      9 C         138.0095  140.9346  164.4215 C.ar    1  UNL1       -0.0044
     10 C         139.0496  141.8843  163.9055 C.ar    1  UNL1       -0.0232
     11 C         140.4196  141.9004  164.5162 C.ar    1  UNL1        0.0082
     12 C         141.4596  142.8502  164.0002 C.3     1  UNL1        0.0350
     13 C         142.4946  142.3717  163.0257 C.3     1  UNL1        0.0465
     14 C         143.8301  143.0512  162.9561 C.2     1  UNL1        0.0507
     15 O         145.0067  142.4686  163.6815 O.co2   1  UNL1       -0.5492
     16 O         143.9890  144.3132  162.1611 O.co2   1  UNL1       -0.5492
     17 O         142.1195  140.9826  166.2535 O.3     1  UNL1       -0.4758
     18 C         142.4242  141.9159  167.3875 C.3     1  UNL1        0.2058
     19 C         141.6289  141.8386  168.6569 C.3     1  UNL1        0.0532
     20 C         141.6077  143.0041  169.6009 C.3     1  UNL1        0.0455
     21 O         139.3611  142.4314  170.7735 O.co2   1  UNL1       -0.5492
     22 C         140.3136  143.4475  170.2162 C.2     1  UNL1        0.0505
     23 O         139.9719  144.9069  170.2743 O.co2   1  UNL1       -0.5492
     24 C         140.8001  144.8765  159.1964 C.3     1  UNL1        0.2054
     25 O         139.8489  144.4580  158.1146 O.3     1  UNL1       -0.4755
     26 C         139.1602  143.1279  158.1948 C.ar    1  UNL1        0.1386
     27 C         138.1634  142.7350  157.1450 C.ar    1  UNL1        0.0369
     28 C         137.4747  141.4049  157.2252 C.ar    1  UNL1        0.0035
     29 C         137.7826  140.4677  158.3552 C.ar    1  UNL1        0.0002
     30 C         138.7793  140.8607  159.4050 C.ar    1  UNL1        0.0031
     31 C         139.4681  142.1908  159.3248 C.ar    1  UNL1        0.0369
     32 C         139.0873  139.9235  160.5351 C.ar    1  UNL1        0.0033
     33 C         138.0257  138.9995  161.0536 C.ar    1  UNL1        0.0033
     34 C         138.3336  138.0624  162.1836 C.ar    1  UNL1        0.0402
     35 C         139.7033  138.0493  162.7951 C.ar    1  UNL1        0.1764
     36 C         140.7650  138.9733  162.2765 C.ar    1  UNL1        0.1764
     37 C         140.4570  139.9105  161.1465 C.ar    1  UNL1        0.0402
     38 O         142.0142  138.7372  163.0725 O.3     1  UNL1       -0.4346
     39 C         141.7246  137.6671  164.0830 C.3     1  UNL1        0.4294
     40 O         140.2964  137.2420  163.9116 O.3     1  UNL1       -0.4346
     41 C         136.4779  141.0118  156.1754 C.ar    1  UNL1        0.0071
     42 C         135.0697  140.5582  156.4225 C.ar    1  UNL1        0.0075
     43 C         134.4359  140.2694  155.0940 C.ar    1  UNL1        0.0355
     44 S         135.4524  140.5446  154.0258 S.2     1  UNL1       -0.0859
     45 C         136.7145  141.0034  154.6941 C.ar    1  UNL1        0.0354
@<TRIPOS>UNITY_ATOM_ATTR
15 1
charge -1
21 1
charge -1
@<TRIPOS>BOND
     1    21    22   ar
     2    22    23   ar
     3    22    20    1
     4    20    19    1
     5    19    18    1
     6    18    17    1
     7    17     6    1
     8     6     7   ar
     9     7     8   ar
    10     8     9   ar
    11     9    10   ar
    12    10     5    1
    13     5     4    1
    14     4     3    1
    15     3     2    1
    16     2     1    1
    17     1    24    1
    18    24    25    1
    19    25    26    1
    20    26    27   ar
    21    27    28   ar
    22    28    41    1
    23    41    42   ar
    24    42    43   ar
    25    43    44   ar
    26    44    45   ar
    27    28    29   ar
    28    29    30   ar
    29    30    32    1
    30    32    33   ar
    31    33    34   ar
    32    34    35   ar
    33    35    36   ar
    34    36    37   ar
    35    36    38    1
    36    38    39    1
    37    39    40    1
    38    30    31   ar
    39    10    11   ar
    40    11    12    1
    41    12    13    1
    42    13    14    1
    43    14    15   ar
    44    14    16   ar
    45    11     6   ar
    46    31    26   ar
    47    45    41   ar
    48    37    32   ar
    49    40    35    1
@<TRIPOS>MOLECULE
*****
 45 49 0 0 0
SMALL
GASTEIGER

@<TRIPOS>ATOM
      1 C         137.8735  144.0207  163.5270 C.3     1  UNL1        0.0473
      2 C         139.0415  144.5458  164.3080 C.3     1  UNL1        0.0038
      3 C         139.5733  143.7687  165.4756 C.3     1  UNL1        0.0005
      4 C         140.9689  143.2201  165.4384 C.3     1  UNL1        0.0047
      5 C         142.0349  143.9340  164.6614 C.3     1  UNL1        0.0261
      6 C         143.5999  142.1855  161.4609 C.ar    1  UNL1        0.1342
      7 C         144.8535  141.6012  162.0416 C.ar    1  UNL1        0.0365
      8 C         145.1676  141.7946  163.4955 C.ar    1  UNL1        0.0028
      9 C         144.2280  142.5722  164.3688 C.ar    1  UNL1       -0.0044
     10 C         142.9745  143.1564  163.7881 C.ar    1  UNL1       -0.0232
     11 C         142.6603  142.9631  162.3341 C.ar    1  UNL1        0.0082
     12 C         141.4068  143.5473  161.7535 C.3     1  UNL1        0.0350
     13 C         141.3530  145.0035  161.3976 C.3     1  UNL1        0.0465
     14 C         140.1728  145.5498  160.6501 C.2     1  UNL1        0.0507
     15 O         139.2220  146.4883  161.3322 O.co2   1  UNL1       -0.5492
     16 O         139.9433  145.1576  159.2206 O.co2   1  UNL1       -0.5492
     17 O         143.2858  141.9921  160.0069 O.3     1  UNL1       -0.4758
     18 C         143.9191  142.8812  158.9781 C.3     1  UNL1        0.2058
     19 C         144.1033  142.3895  157.5730 C.3     1  UNL1        0.0532
     20 C         144.8877  141.1377  157.3132 C.3     1  UNL1        0.0455
     21 O         144.1001  141.1573  154.8375 O.co2   1  UNL1       -0.5492
     22 C         144.8692  140.5101  155.9509 C.2     1  UNL1        0.0505
     23 O         145.6198  139.2355  155.7021 O.co2   1  UNL1       -0.5492
     24 C         137.5615  142.5535  163.5395 C.3     1  UNL1        0.2054
     25 O         137.7759  141.7307  162.3038 O.3     1  UNL1       -0.4755
     26 C         139.0411  140.9422  162.1379 C.ar    1  UNL1        0.1386
     27 C         139.8653  140.5852  163.3392 C.ar    1  UNL1        0.0369
     28 C         141.1305  139.7966  163.1734 C.ar    1  UNL1        0.0035
     29 C         141.5715  139.3651  161.8061 C.ar    1  UNL1        0.0002
     30 C         140.7473  139.7222  160.6048 C.ar    1  UNL1        0.0031
     31 C         139.4821  140.5107  160.7707 C.ar    1  UNL1        0.0369
     32 C         141.1883  139.2907  159.2375 C.ar    1  UNL1        0.0033
     33 C         140.7666  140.0756  158.0309 C.ar    1  UNL1        0.0033
     34 C         141.2075  139.6441  156.6637 C.ar    1  UNL1        0.0402
     35 C         142.0703  138.4277  156.5031 C.ar    1  UNL1        0.1764
     36 C         142.4922  137.6427  157.7097 C.ar    1  UNL1        0.1764
     37 C         142.0512  138.0741  159.0769 C.ar    1  UNL1        0.0402
     38 O         143.3384  136.4952  157.2437 O.3     1  UNL1       -0.4346
     39 C         143.4396  136.5710  155.7490 C.3     1  UNL1        0.4294
     40 O         142.6559  137.7653  155.2913 O.3     1  UNL1       -0.4346
     41 C         141.9548  139.4395  164.3747 C.ar    1  UNL1        0.0071
     42 C         143.3036  138.7836  164.3552 C.ar    1  UNL1        0.0075
     43 C         143.7573  138.6144  165.7749 C.ar    1  UNL1        0.0355
     44 S         142.6888  139.1658  166.6718 S.2     1  UNL1       -0.0859
     45 C         141.5748  139.6757  165.8065 C.ar    1  UNL1        0.0354
@<TRIPOS>UNITY_ATOM_ATTR
15 1
charge -1
21 1
charge -1
@<TRIPOS>BOND
     1    21    22   ar
     2    22    23   ar
     3    22    20    1
     4    20    19    1
     5    19    18    1
     6    18    17    1
     7    17     6    1
     8     6     7   ar
     9     7     8   ar
    10     8     9   ar
    11     9    10   ar
    12    10     5    1
    13     5     4    1
    14     4     3    1
    15     3     2    1
    16     2     1    1
    17     1    24    1
    18    24    25    1
    19    25    26    1
    20    26    27   ar
    21    27    28   ar
    22    28    41    1
    23    41    42   ar
    24    42    43   ar
    25    43    44   ar
    26    44    45   ar
    27    28    29   ar
    28    29    30   ar
    29    30    32    1
    30    32    33   ar
    31    33    34   ar
    32    34    35   ar
    33    35    36   ar
    34    36    37   ar
    35    36    38    1
    36    38    39    1
    37    39    40    1
    38    30    31   ar
    39    10    11   ar
    40    11    12    1
    41    12    13    1
    42    13    14    1
    43    14    15   ar
    44    14    16   ar
    45    11     6   ar
    46    31    26   ar
    47    45    41   ar
    48    37    32   ar
    49    40    35    1
@<TRIPOS>MOLECULE
*****
 45 49 0 0 0
SMALL
GASTEIGER

@<TRIPOS>ATOM
      1 C         141.7131  137.6913  156.0805 C.3     1  UNL1        0.0473
      2 C         142.8022  137.3488  157.0534 C.3     1  UNL1        0.0038
      3 C         142.6173  137.6288  158.5154 C.3     1  UNL1        0.0005
      4 C         143.0711  138.9371  159.0918 C.3     1  UNL1        0.0047
      5 C         143.2224  139.0905  160.5762 C.3     1  UNL1        0.0261
      6 C         142.7804  141.9732  163.2677 C.ar    1  UNL1        0.1342
      7 C         143.0938  143.1843  162.4400 C.ar    1  UNL1        0.0365
      8 C         143.4500  143.0308  160.9910 C.ar    1  UNL1        0.0028
      9 C         143.4929  141.6661  160.3697 C.ar    1  UNL1       -0.0044
     10 C         143.1795  140.4551  161.1975 C.ar    1  UNL1       -0.0232
     11 C         142.8233  140.6086  162.6465 C.ar    1  UNL1        0.0082
     12 C         142.5100  139.3975  163.4741 C.3     1  UNL1        0.0350
     13 C         143.5210  138.8749  164.4512 C.3     1  UNL1        0.0465
     14 C         143.1385  138.6656  165.8864 C.2     1  UNL1        0.0507
     15 O         144.0688  137.9394  166.8123 O.co2   1  UNL1       -0.5492
     16 O         141.8257  139.1824  166.3958 O.co2   1  UNL1       -0.5492
     17 O         142.4242  142.1268  164.7167 O.3     1  UNL1       -0.4758
     18 C         141.5006  143.2266  165.1495 C.3     1  UNL1        0.2058
     19 C         140.1516  143.3687  164.5090 C.3     1  UNL1        0.0532
     20 C         139.6144  144.7315  164.1864 C.3     1  UNL1        0.0455
     21 O         139.7162  146.2170  162.0573 O.co2   1  UNL1       -0.5492
     22 C         139.1453  145.0429  162.7961 C.2     1  UNL1        0.0505
     23 O         138.1053  144.1804  162.1446 O.co2   1  UNL1       -0.5492
     24 C         140.2882  137.3461  156.3979 C.3     1  UNL1        0.2054
     25 O         139.2990  138.4361  156.6868 O.3     1  UNL1       -0.4755
     26 C         139.5214  139.3630  157.8450 C.ar    1  UNL1        0.1386
     27 C         139.9697  140.7736  157.6014 C.ar    1  UNL1        0.0369
     28 C         140.1920  141.7005  158.7596 C.ar    1  UNL1        0.0035
     29 C         139.9660  141.2169  160.1614 C.ar    1  UNL1        0.0002
     30 C         139.5177  139.8064  160.4050 C.ar    1  UNL1        0.0031
     31 C         139.2953  138.8794  159.2468 C.ar    1  UNL1        0.0369
     32 C         139.2916  139.3227  161.8068 C.ar    1  UNL1        0.0033
     33 C         139.4484  137.8670  162.1324 C.ar    1  UNL1        0.0033
     34 C         139.2224  137.3833  163.5341 C.ar    1  UNL1        0.0402
     35 C         138.8395  138.3555  164.6104 C.ar    1  UNL1        0.1764
     36 C         138.6827  139.8114  164.2848 C.ar    1  UNL1        0.1764
     37 C         138.9088  140.2950  162.8831 C.ar    1  UNL1        0.0402
     38 O         138.3000  140.5295  165.5449 O.3     1  UNL1       -0.4346
     39 C         138.2202  139.5175  166.6492 C.3     1  UNL1        0.4294
     40 O         138.5537  138.1739  166.0716 O.3     1  UNL1       -0.4346
     41 C         140.6404  143.1111  158.5160 C.ar    1  UNL1        0.0071
     42 C         140.1103  144.3355  159.2014 C.ar    1  UNL1        0.0075
     43 C         140.8399  145.5260  158.6533 C.ar    1  UNL1        0.0355
     44 S         141.8210  145.0374  157.6292 S.2     1  UNL1       -0.0859
     45 C         141.6977  143.5449  157.5444 C.ar    1  UNL1        0.0354
@<TRIPOS>UNITY_ATOM_ATTR
15 1
charge -1
21 1
charge -1
@<TRIPOS>BOND
     1    21    22   ar
     2    22    23   ar
     3    22    20    1
     4    20    19    1
     5    19    18    1
     6    18    17    1
     7    17     6    1
     8     6     7   ar
     9     7     8   ar
    10     8     9   ar
    11     9    10   ar
    12    10     5    1
    13     5     4    1
    14     4     3    1
    15     3     2    1
    16     2     1    1
    17     1    24    1
    18    24    25    1
    19    25    26    1
    20    26    27   ar
    21    27    28   ar
    22    28    41    1
    23    41    42   ar
    24    42    43   ar
    25    43    44   ar
    26    44    45   ar
    27    28    29   ar
    28    29    30   ar
    29    30    32    1
    30    32    33   ar
    31    33    34   ar
    32    34    35   ar
    33    35    36   ar
    34    36    37   ar
    35    36    38    1
    36    38    39    1
    37    39    40    1
    38    30    31   ar
    39    10    11   ar
    40    11    12    1
    41    12    13    1
    42    13    14    1
    43    14    15   ar
    44    14    16   ar
    45    11     6   ar
    46    31    26   ar
    47    45    41   ar
    48    37    32   ar
    49    40    35    1
@<TRIPOS>MOLECULE
*****
 45 49 0 0 0
SMALL
GASTEIGER

@<TRIPOS>ATOM
      1 C         144.6848  143.1993  162.7099 C.3     1  UNL1        0.0473
      2 C         144.8419  142.4107  163.9762 C.3     1  UNL1        0.0038
      3 C         144.0724  142.8010  165.2032 C.3     1  UNL1        0.0005
      4 C         142.5858  142.6066  165.2496 C.3     1  UNL1        0.0047
      5 C         141.6752  143.6413  164.6579 C.3     1  UNL1        0.0261
      6 C         138.7226  142.6684  162.1910 C.ar    1  UNL1        0.1342
      7 C         137.5986  142.4604  163.1624 C.ar    1  UNL1        0.0365
      8 C         137.8335  142.6462  164.6322 C.ar    1  UNL1        0.0028
      9 C         139.1924  143.0398  165.1307 C.ar    1  UNL1       -0.0044
     10 C         140.3163  143.2477  164.1594 C.ar    1  UNL1       -0.0232
     11 C         140.0815  143.0620  162.6895 C.ar    1  UNL1        0.0082
     12 C         141.2055  143.2699  161.7183 C.3     1  UNL1        0.0350
     13 C         141.4958  144.6435  161.1901 C.3     1  UNL1        0.0465
     14 C         140.3665  145.5657  160.8379 C.2     1  UNL1        0.0507
     15 O         139.9463  146.6381  161.7989 O.co2   1  UNL1       -0.5492
     16 O         139.6573  145.4156  159.5247 O.co2   1  UNL1       -0.5492
     17 O         138.4877  142.4826  160.7212 O.3     1  UNL1       -0.4758
     18 C         138.7006  141.1379  160.0917 C.3     1  UNL1        0.2058
     19 C         139.4536  141.0255  158.7992 C.3     1  UNL1        0.0532
     20 C         140.1873  142.2143  158.2529 C.3     1  UNL1        0.0455
     21 O         141.8614  141.2191  156.5333 O.co2   1  UNL1       -0.5492
     22 C         141.5903  142.0612  157.7448 C.2     1  UNL1        0.0505
     23 O         142.7220  142.7501  158.4480 O.co2   1  UNL1       -0.5492
     24 C         144.8115  142.5163  161.3804 C.3     1  UNL1        0.2054
     25 O         144.9362  141.0231  161.3133 O.3     1  UNL1       -0.4755
     26 C         143.7150  140.1769  161.1069 C.ar    1  UNL1        0.1386
     27 C         143.4421  139.5690  159.7631 C.ar    1  UNL1        0.0369
     28 C         142.2208  138.7229  159.5566 C.ar    1  UNL1        0.0035
     29 C         141.2724  138.4847  160.6941 C.ar    1  UNL1        0.0002
     30 C         141.5453  139.0925  162.0379 C.ar    1  UNL1        0.0031
     31 C         142.7666  139.9387  162.2444 C.ar    1  UNL1        0.0369
     32 C         140.5969  138.8543  163.1755 C.ar    1  UNL1        0.0033
     33 C         139.5127  137.8260  163.0452 C.ar    1  UNL1        0.0033
     34 C         138.5644  137.5878  164.1826 C.ar    1  UNL1        0.0402
     35 C         138.7002  138.3779  165.4504 C.ar    1  UNL1        0.1764
     36 C         139.7844  139.4062  165.5807 C.ar    1  UNL1        0.1764
     37 C         140.7328  139.6445  164.4433 C.ar    1  UNL1        0.0402
     38 O         139.6733  140.0270  166.9417 O.3     1  UNL1       -0.4346
     39 C         138.5205  139.3824  167.6525 C.3     1  UNL1        0.4294
     40 O         137.9190  138.3631  166.7308 O.3     1  UNL1       -0.4346
     41 C         141.9479  138.1149  158.2127 C.ar    1  UNL1        0.0071
     42 C         140.5956  137.9015  157.5998 C.ar    1  UNL1        0.0075
     43 C         140.7913  137.2684  156.2542 C.ar    1  UNL1        0.0355
     44 S         142.2646  137.0905  156.0354 S.2     1  UNL1       -0.0859
     45 C         142.9794  137.6138  157.2459 C.ar    1  UNL1        0.0354
@<TRIPOS>UNITY_ATOM_ATTR
15 1
charge -1
21 1
charge -1
@<TRIPOS>BOND
     1    21    22   ar
     2    22    23   ar
     3    22    20    1
     4    20    19    1
     5    19    18    1
     6    18    17    1
     7    17     6    1
     8     6     7   ar
     9     7     8   ar
    10     8     9   ar
    11     9    10   ar
    12    10     5    1
    13     5     4    1
    14     4     3    1
    15     3     2    1
    16     2     1    1
    17     1    24    1
    18    24    25    1
    19    25    26    1
    20    26    27   ar
    21    27    28   ar
    22    28    41    1
    23    41    42   ar
    24    42    43   ar
    25    43    44   ar
    26    44    45   ar
    27    28    29   ar
    28    29    30   ar
    29    30    32    1
    30    32    33   ar
    31    33    34   ar
    32    34    35   ar
    33    35    36   ar
    34    36    37   ar
    35    36    38    1
    36    38    39    1
    37    39    40    1
    38    30    31   ar
    39    10    11   ar
    40    11    12    1
    41    12    13    1
    42    13    14    1
    43    14    15   ar
    44    14    16   ar
    45    11     6   ar
    46    31    26   ar
    47    45    41   ar
    48    37    32   ar
    49    40    35    1
@<TRIPOS>MOLECULE
*****
 45 49 0 0 0
SMALL
GASTEIGER

@<TRIPOS>ATOM
      1 C         141.4788  144.7748  161.4161 C.3     1  UNL1        0.0473
      2 C         142.6032  143.8784  160.9895 C.3     1  UNL1        0.0038
      3 C         142.9907  142.7049  161.8396 C.3     1  UNL1        0.0005
      4 C         143.4218  141.4212  161.1944 C.3     1  UNL1        0.0047
      5 C         144.1794  140.3995  161.9895 C.3     1  UNL1        0.0261
      6 C         142.9284  139.3639  165.6106 C.ar    1  UNL1        0.1342
      7 C         142.1210  138.1404  165.2924 C.ar    1  UNL1        0.0365
      8 C         141.9997  137.6700  163.8733 C.ar    1  UNL1        0.0028
      9 C         142.6859  138.4230  162.7723 C.ar    1  UNL1       -0.0044
     10 C         143.4932  139.6465  163.0905 C.ar    1  UNL1       -0.0232
     11 C         143.6145  140.1170  164.5097 C.ar    1  UNL1        0.0082
     12 C         144.4219  141.3404  164.8278 C.3     1  UNL1        0.0350
     13 C         143.7530  142.5496  165.4112 C.3     1  UNL1        0.0465
     14 C         144.4071  143.8949  165.3012 C.2     1  UNL1        0.0507
     15 O         144.0288  144.8239  164.1859 O.co2   1  UNL1       -0.5492
     16 O         145.4396  144.3113  166.3065 O.co2   1  UNL1       -0.5492
     17 O         143.0497  139.8343  167.0298 O.3     1  UNL1       -0.4758
     18 C         141.9183  139.6183  167.9908 C.3     1  UNL1        0.2058
     19 C         141.8252  140.4465  169.2380 C.3     1  UNL1        0.0532
     20 C         140.4850  140.8874  169.7472 C.3     1  UNL1        0.0455
     21 O         140.6036  142.2526  171.9545 O.co2   1  UNL1       -0.5492
     22 C         140.3517  142.1911  170.4770 C.2     1  UNL1        0.0505
     23 O         139.9666  143.4331  169.7294 O.co2   1  UNL1       -0.5492
     24 C         140.3366  145.0420  160.4811 C.3     1  UNL1        0.2054
     25 O         139.1841  144.0845  160.4123 O.3     1  UNL1       -0.4755
     26 C         139.4039  142.6256  160.6830 C.ar    1  UNL1        0.1386
     27 C         139.1295  142.0663  162.0476 C.ar    1  UNL1        0.0369
     28 C         139.3493  140.6074  162.3183 C.ar    1  UNL1        0.0035
     29 C         139.8434  139.7077  161.2245 C.ar    1  UNL1        0.0002
     30 C         140.1177  140.2670  159.8599 C.ar    1  UNL1        0.0031
     31 C         139.8980  141.7259  159.5892 C.ar    1  UNL1        0.0369
     32 C         140.6119  139.3673  158.7660 C.ar    1  UNL1        0.0033
     33 C         139.6494  138.4835  158.0297 C.ar    1  UNL1        0.0033
     34 C         140.1434  137.5838  156.9359 C.ar    1  UNL1        0.0402
     35 C         141.6001  137.5680  156.5784 C.ar    1  UNL1        0.1764
     36 C         142.5627  138.4519  157.3148 C.ar    1  UNL1        0.1764
     37 C         142.0686  139.3515  158.4086 C.ar    1  UNL1        0.0402
     38 O         143.9314  138.2223  156.7455 O.3     1  UNL1       -0.4346
     39 C         143.8146  137.1966  155.6572 C.3     1  UNL1        0.4294
     40 O         142.3739  136.7922  155.5540 O.3     1  UNL1       -0.4346
     41 C         139.0750  140.0481  163.6829 C.ar    1  UNL1        0.0071
     42 C         138.5892  138.6617  163.9862 C.ar    1  UNL1        0.0075
     43 C         138.4523  138.5338  165.4744 C.ar    1  UNL1        0.0355
     44 S         138.8535  139.8411  166.0909 S.2     1  UNL1       -0.0859
     45 C         139.2383  140.7770  164.9837 C.ar    1  UNL1        0.0354
@<TRIPOS>UNITY_ATOM_ATTR
15 1
charge -1
21 1
charge -1
@<TRIPOS>BOND
     1    21    22   ar
     2    22    23   ar
     3    22    20    1
     4    20    19    1
     5    19    18    1
     6    18    17    1
     7    17     6    1
     8     6     7   ar
     9     7     8   ar
    10     8     9   ar
    11     9    10   ar
    12    10     5    1
    13     5     4    1
    14     4     3    1
    15     3     2    1
    16     2     1    1
    17     1    24    1
    18    24    25    1
    19    25    26    1
    20    26    27   ar
    21    27    28   ar
    22    28    41    1
    23    41    42   ar
    24    42    43   ar
    25    43    44   ar
    26    44    45   ar
    27    28    29   ar
    28    29    30   ar
    29    30    32    1
    30    32    33   ar
    31    33    34   ar
    32    34    35   ar
    33    35    36   ar
    34    36    37   ar
    35    36    38    1
    36    38    39    1
    37    39    40    1
    38    30    31   ar
    39    10    11   ar
    40    11    12    1
    41    12    13    1
    42    13    14    1
    43    14    15   ar
    44    14    16   ar
    45    11     6   ar
    46    31    26   ar
    47    45    41   ar
    48    37    32   ar
    49    40    35    1
@<TRIPOS>MOLECULE
*****
 45 49 0 0 0
SMALL
GASTEIGER

@<TRIPOS>ATOM
      1 C         143.6254  139.9246  158.1998 C.3     1  UNL1        0.0473
      2 C         143.7005  140.0489  159.6928 C.3     1  UNL1        0.0038
      3 C         143.2809  138.9014  160.5629 C.3     1  UNL1        0.0005
      4 C         142.5155  139.1593  161.8269 C.3     1  UNL1        0.0047
      5 C         142.0575  140.5493  162.1560 C.3     1  UNL1        0.0261
      6 C         142.1923  141.7981  165.9205 C.ar    1  UNL1        0.1342
      7 C         143.4864  142.5568  165.9213 C.ar    1  UNL1        0.0365
      8 C         144.3041  142.6462  164.6670 C.ar    1  UNL1        0.0028
      9 C         143.8278  141.9771  163.4119 C.ar    1  UNL1       -0.0044
     10 C         142.5338  141.2184  163.4111 C.ar    1  UNL1       -0.0232
     11 C         141.7160  141.1289  164.6654 C.ar    1  UNL1        0.0082
     12 C         140.4221  140.3703  164.6646 C.3     1  UNL1        0.0350
     13 C         139.1425  141.0704  164.3143 C.3     1  UNL1        0.0465
     14 C         138.2261  140.4854  163.2809 C.2     1  UNL1        0.0507
     15 O         137.3159  141.3801  162.4929 O.co2   1  UNL1       -0.5492
     16 O         138.2198  139.0056  163.0356 O.co2   1  UNL1       -0.5492
     17 O         141.3747  141.7086  167.1749 O.3     1  UNL1       -0.4758
     18 C         141.5884  140.5721  168.1301 C.3     1  UNL1        0.2058
     19 C         140.5343  140.2349  169.1426 C.3     1  UNL1        0.0532
     20 C         139.5646  141.2864  169.5943 C.3     1  UNL1        0.0455
     21 O         139.8963  143.8314  169.9976 O.co2   1  UNL1       -0.5492
     22 C         140.0326  142.4132  170.4668 C.2     1  UNL1        0.0505
     23 O         140.6368  142.1217  171.8084 O.co2   1  UNL1       -0.5492
     24 C         143.7556  141.1455  157.3381 C.3     1  UNL1        0.2054
     25 O         144.0693  142.4733  157.9615 O.3     1  UNL1       -0.4755
     26 C         142.9587  143.4195  158.3097 C.ar    1  UNL1        0.1386
     27 C         142.3361  144.2705  157.2428 C.ar    1  UNL1        0.0369
     28 C         141.2255  145.2166  157.5911 C.ar    1  UNL1        0.0035
     29 C         140.7374  145.3119  159.0062 C.ar    1  UNL1        0.0002
     30 C         141.3599  144.4609  160.0731 C.ar    1  UNL1        0.0031
     31 C         142.4706  143.5147  159.7249 C.ar    1  UNL1        0.0369
     32 C         140.8718  144.5561  161.4884 C.ar    1  UNL1        0.0033
     33 C         141.8423  144.8249  162.5999 C.ar    1  UNL1        0.0033
     34 C         141.3543  144.9201  164.0151 C.ar    1  UNL1        0.0402
     35 C         139.8956  144.7465  164.3186 C.ar    1  UNL1        0.1764
     36 C         138.9250  144.4777  163.2070 C.ar    1  UNL1        0.1764
     37 C         139.4131  144.3825  161.7919 C.ar    1  UNL1        0.0402
     38 O         137.5561  144.3516  163.8072 O.3     1  UNL1       -0.4346
     39 C         137.6807  144.5424  165.2898 C.3     1  UNL1        0.4294
     40 O         139.1266  144.7865  165.6059 O.3     1  UNL1       -0.4346
     41 C         140.6029  146.0677  156.5241 C.ar    1  UNL1        0.0071
     42 C         141.0289  146.1322  155.0874 C.ar    1  UNL1        0.0075
     43 C         140.1343  147.1079  154.3820 C.ar    1  UNL1        0.0355
     44 S         139.1553  147.6465  155.3829 S.2     1  UNL1       -0.0859
     45 C         139.4449  147.0035  156.7068 C.ar    1  UNL1        0.0354
@<TRIPOS>UNITY_ATOM_ATTR
15 1
charge -1
21 1
charge -1
@<TRIPOS>BOND
     1    21    22   ar
     2    22    23   ar
     3    22    20    1
     4    20    19    1
     5    19    18    1
     6    18    17    1
     7    17     6    1
     8     6     7   ar
     9     7     8   ar
    10     8     9   ar
    11     9    10   ar
    12    10     5    1
    13     5     4    1
    14     4     3    1
    15     3     2    1
    16     2     1    1
    17     1    24    1
    18    24    25    1
    19    25    26    1
    20    26    27   ar
    21    27    28   ar
    22    28    41    1
    23    41    42   ar
    24    42    43   ar
    25    43    44   ar
    26    44    45   ar
    27    28    29   ar
    28    29    30   ar
    29    30    32    1
    30    32    33   ar
    31    33    34   ar
    32    34    35   ar
    33    35    36   ar
    34    36    37   ar
    35    36    38    1
    36    38    39    1
    37    39    40    1
    38    30    31   ar
    39    10    11   ar
    40    11    12    1
    41    12    13    1
    42    13    14    1
    43    14    15   ar
    44    14    16   ar
    45    11     6   ar
    46    31    26   ar
    47    45    41   ar
    48    37    32   ar
    49    40    35    1
@<TRIPOS>MOLECULE
*****
 45 49 0 0 0
SMALL
GASTEIGER

@<TRIPOS>ATOM
      1 C         140.5060  145.4430  158.0637 C.3     1  UNL1        0.0473
      2 C         140.3483  145.4773  159.5550 C.3     1  UNL1        0.0038
      3 C         141.4356  144.9386  160.4368 C.3     1  UNL1        0.0005
      4 C         141.1626  144.6746  161.8880 C.3     1  UNL1        0.0047
      5 C         141.5158  143.3461  162.4881 C.3     1  UNL1        0.0261
      6 C         140.1062  141.1879  165.5055 C.ar    1  UNL1        0.1342
      7 C         138.6296  141.2914  165.2625 C.ar    1  UNL1        0.0365
      8 C         138.1151  142.0799  164.0948 C.ar    1  UNL1        0.0028
      9 C         139.0772  142.7648  163.1699 C.ar    1  UNL1       -0.0044
     10 C         140.5537  142.6612  163.4129 C.ar    1  UNL1       -0.0232
     11 C         141.0683  141.8728  164.5807 C.ar    1  UNL1        0.0082
     12 C         142.5449  141.7692  164.8235 C.3     1  UNL1        0.0350
     13 C         143.2385  142.7918  165.6741 C.3     1  UNL1        0.0465
     14 C         144.6472  143.1989  165.3585 C.2     1  UNL1        0.0507
     15 O         145.2933  144.3175  166.1209 O.co2   1  UNL1       -0.5492
     16 O         145.4099  142.4874  164.2805 O.co2   1  UNL1       -0.5492
     17 O         140.6207  140.3994  166.6733 O.3     1  UNL1       -0.4758
     18 C         139.6760  139.9454  167.7463 C.3     1  UNL1        0.2058
     19 C         139.6322  140.6660  169.0611 C.3     1  UNL1        0.0532
     20 C         140.4437  141.9116  169.2611 C.3     1  UNL1        0.0455
     21 O         140.5074  142.1286  171.8493 O.co2   1  UNL1       -0.5492
     22 C         140.2591  142.7361  170.5005 C.2     1  UNL1        0.0505
     23 O         139.8261  144.1681  170.3910 O.co2   1  UNL1       -0.5492
     24 C         139.6635  144.5132  157.2417 C.3     1  UNL1        0.2054
     25 O         139.4486  143.0990  157.6930 O.3     1  UNL1       -0.4755
     26 C         140.6094  142.2817  158.1774 C.ar    1  UNL1        0.1386
     27 C         141.9009  142.2873  157.4146 C.ar    1  UNL1        0.0369
     28 C         143.0617  141.4701  157.8990 C.ar    1  UNL1        0.0035
     29 C         142.9310  140.6473  159.1464 C.ar    1  UNL1        0.0002
     30 C         141.6395  140.6417  159.9092 C.ar    1  UNL1        0.0031
     31 C         140.4787  141.4589  159.4248 C.ar    1  UNL1        0.0369
     32 C         141.5088  139.8188  161.1567 C.ar    1  UNL1        0.0033
     33 C         142.7371  139.3232  161.8603 C.ar    1  UNL1        0.0033
     34 C         142.6064  138.5004  163.1077 C.ar    1  UNL1        0.0402
     35 C         141.2473  138.1732  163.6513 C.ar    1  UNL1        0.1764
     36 C         140.0188  138.6689  162.9476 C.ar    1  UNL1        0.1764
     37 C         140.1495  139.4917  161.7003 C.ar    1  UNL1        0.0402
     38 O         138.8210  138.1906  163.7136 O.3     1  UNL1       -0.4346
     39 C         139.3093  137.3994  164.8906 C.3     1  UNL1        0.4294
     40 O         140.8088  137.3886  164.8522 O.3     1  UNL1       -0.4346
     41 C         144.3533  141.4756  157.1362 C.ar    1  UNL1        0.0071
     42 C         144.6575  140.6645  155.9117 C.ar    1  UNL1        0.0075
     43 C         146.0596  140.9808  155.4827 C.ar    1  UNL1        0.0355
     44 S         146.6219  141.9876  156.4420 S.2     1  UNL1       -0.0859
     45 C         145.5673  142.2933  157.4640 C.ar    1  UNL1        0.0354
@<TRIPOS>UNITY_ATOM_ATTR
15 1
charge -1
21 1
charge -1
@<TRIPOS>BOND
     1    21    22   ar
     2    22    23   ar
     3    22    20    1
     4    20    19    1
     5    19    18    1
     6    18    17    1
     7    17     6    1
     8     6     7   ar
     9     7     8   ar
    10     8     9   ar
    11     9    10   ar
    12    10     5    1
    13     5     4    1
    14     4     3    1
    15     3     2    1
    16     2     1    1
    17     1    24    1
    18    24    25    1
    19    25    26    1
    20    26    27   ar
    21    27    28   ar
    22    28    41    1
    23    41    42   ar
    24    42    43   ar
    25    43    44   ar
    26    44    45   ar
    27    28    29   ar
    28    29    30   ar
    29    30    32    1
    30    32    33   ar
    31    33    34   ar
    32    34    35   ar
    33    35    36   ar
    34    36    37   ar
    35    36    38    1
    36    38    39    1
    37    39    40    1
    38    30    31   ar
    39    10    11   ar
    40    11    12    1
    41    12    13    1
    42    13    14    1
    43    14    15   ar
    44    14    16   ar
    45    11     6   ar
    46    31    26   ar
    47    45    41   ar
    48    37    32   ar
    49    40    35    1
