@<TRIPOS>MOLECULE
*****
 40 44 0 0 0
SMALL
GASTEIGER

@<TRIPOS>ATOM
      1 C         140.4506  139.7332  157.1549 C.ar    1  UNL1        0.1385
      2 C         140.5263  138.6754  158.2157 C.ar    1  UNL1        0.0366
      3 C         139.5362  138.6711  159.3426 C.ar    1  UNL1       -0.0011
      4 C         138.4705  139.7247  159.4086 C.ar    1  UNL1       -0.0214
      5 C         138.3949  140.7825  158.3478 C.ar    1  UNL1       -0.0011
      6 C         139.3850  140.7867  157.2210 C.ar    1  UNL1        0.0366
      7 O         141.4406  139.7375  156.0281 O.3     1  UNL1       -0.4750
      8 C         142.7660  139.0543  156.1915 C.3     1  UNL1        0.2118
      9 C         143.9071  139.7772  156.8436 C.3     1  UNL1        0.0960
     10 C         143.8248  142.8632  157.9017 C.3     1  UNL1        0.0738
     11 C         143.7598  141.6348  158.7601 C.ar    1  UNL1        0.1387
     12 O         143.6456  141.6091  160.2555 O.2     1  UNL1       -0.4392
     13 C         143.6129  140.1748  160.6933 C.ar    1  UNL1        0.2289
     14 N         143.7068  139.3140  159.4685 N.ar    1  UNL1       -0.2129
     15 C         143.7977  140.2163  158.2737 C.ar    1  UNL1        0.0960
     16 C         143.5051  139.6869  162.1077 C.ar    1  UNL1        0.0535
     17 C         142.3449  138.8299  162.5191 C.ar    1  UNL1        0.0046
     18 C         142.2371  138.3421  163.9335 C.ar    1  UNL1        0.0002
     19 C         143.2896  138.7113  164.9364 C.ar    1  UNL1        0.0000
     20 C         144.4498  139.5684  164.5250 C.ar    1  UNL1        0.0002
     21 C         144.5576  140.0562  163.1107 C.ar    1  UNL1        0.0046
     22 C         137.4805  139.7204  160.5355 C.3     1  UNL1        0.0375
     23 C         137.9569  139.8386  161.9529 C.3     1  UNL1        0.1052
     24 C         138.5030  138.8825  162.9715 C.2     1  UNL1        0.2315
     25 O         138.7989  137.4122  162.9949 O.2     1  UNL1       -0.2745
     26 N         138.6307  140.0059  163.9574 N.am    1  UNL1       -0.2546
     27 C         138.0846  140.9620  162.9386 C.3     1  UNL1        0.1249
     28 C         139.1071  140.1241  165.3748 C.ar    1  UNL1        0.0541
     29 C         138.3939  139.3877  166.4697 C.ar    1  UNL1        0.0146
     30 C         138.8704  139.5059  167.8871 C.ar    1  UNL1       -0.0030
     31 C         140.0601  140.3607  168.2096 C.ar    1  UNL1       -0.0227
     32 C         140.7733  141.0972  167.1146 C.ar    1  UNL1       -0.0030
     33 C         140.2968  140.9789  165.6973 C.ar    1  UNL1        0.0146
     34 C         140.5366  140.4790  169.6270 C.3     1  UNL1        0.0189
     35 C         141.7683  139.6972  169.2781 C.3     1  UNL1        0.0044
     36 C         139.3048  141.2607  169.9758 C.3     1  UNL1        0.0044
     37 C         141.0130  140.5972  171.0443 C.3     1  UNL1        0.0044
     38 C         137.7887  142.4323  162.9154 C.2     1  UNL1        0.0692
     39 O         137.6600  143.1509  161.6050 O.co2   1  UNL1       -0.5475
     40 O         137.6216  143.1841  164.2026 O.co2   1  UNL1       -0.5475
@<TRIPOS>UNITY_ATOM_ATTR
39 1
charge -1
@<TRIPOS>BOND
     1    10    11    1
     2    11    12   ar
     3    12    13   ar
     4    13    16    1
     5    16    17   ar
     6    17    18   ar
     7    18    19   ar
     8    19    20   ar
     9    20    21   ar
    10    13    14   ar
    11    14    15   ar
    12    15     9    1
    13     9     8    1
    14     8     7    1
    15     7     1    1
    16     1     2   ar
    17     2     3   ar
    18     3     4   ar
    19     4    22    1
    20    23    22    1
    21    23    24    1
    22    24    25    2
    23    24    26   am
    24    26    28    1
    25    28    29   ar
    26    29    30   ar
    27    30    31   ar
    28    31    34    1
    29    34    35    1
    30    34    36    1
    31    34    37    1
    32    31    32   ar
    33    32    33   ar
    34    26    27    1
    35    27    38    1
    36    38    39   ar
    37    38    40   ar
    38     4     5   ar
    39     5     6   ar
    40    15    11   ar
    41     6     1   ar
    42    21    16   ar
    43    27    23    1
    44    33    28   ar
@<TRIPOS>MOLECULE
*****
 40 44 0 0 0
SMALL
GASTEIGER

@<TRIPOS>ATOM
      1 C         141.8666  140.5467  157.4913 C.ar    1  UNL1        0.1385
      2 C         142.5988  141.3786  158.5023 C.ar    1  UNL1        0.0366
      3 C         143.3385  140.7147  159.6258 C.ar    1  UNL1       -0.0011
      4 C         143.3460  139.2189  159.7382 C.ar    1  UNL1       -0.0214
      5 C         142.6138  138.3871  158.7273 C.ar    1  UNL1       -0.0011
      6 C         141.8742  139.0511  157.6039 C.ar    1  UNL1        0.0366
      7 O         141.1270  141.2106  156.3679 O.3     1  UNL1       -0.4750
      8 C         140.9266  142.6972  156.3769 C.3     1  UNL1        0.2118
      9 C         139.6608  143.2801  156.9318 C.3     1  UNL1        0.0960
     10 C         138.0444  140.6325  157.9454 C.3     1  UNL1        0.0738
     11 C         138.5114  141.7653  158.8106 C.ar    1  UNL1        0.1387
     12 O         138.3174  141.8801  160.2935 O.2     1  UNL1       -0.4392
     13 C         138.9405  143.1681  160.7442 C.ar    1  UNL1        0.2289
     14 N         139.5196  143.8492  159.5398 N.ar    1  UNL1       -0.2129
     15 C         139.2544  142.9823  158.3447 C.ar    1  UNL1        0.0960
     16 C         138.9779  143.6842  162.1522 C.ar    1  UNL1        0.0535
     17 C         140.2107  144.3645  162.6691 C.ar    1  UNL1        0.0046
     18 C         140.2481  144.8805  164.0770 C.ar    1  UNL1        0.0002
     19 C         139.0526  144.7163  164.9680 C.ar    1  UNL1        0.0000
     20 C         137.8197  144.0360  164.4510 C.ar    1  UNL1        0.0002
     21 C         137.7824  143.5199  163.0431 C.ar    1  UNL1        0.0046
     22 C         144.0857  138.5550  160.8617 C.3     1  UNL1        0.0375
     23 C         143.8001  138.9452  162.2816 C.3     1  UNL1        0.1052
     24 C         144.4373  139.8697  163.2762 C.2     1  UNL1        0.2315
     25 O         145.6239  140.7872  163.2629 O.2     1  UNL1       -0.2745
     26 N         143.3962  139.4969  164.2898 N.am    1  UNL1       -0.2546
     27 C         142.7591  138.5723  163.2951 C.3     1  UNL1        0.1249
     28 C         143.1107  139.8870  165.7097 C.ar    1  UNL1        0.0541
     29 C         142.8940  141.3287  166.0623 C.ar    1  UNL1        0.0146
     30 C         142.6084  141.7189  167.4822 C.ar    1  UNL1       -0.0030
     31 C         142.5395  140.6672  168.5496 C.ar    1  UNL1       -0.0227
     32 C         142.7562  139.2254  168.1969 C.ar    1  UNL1       -0.0030
     33 C         143.0418  138.8354  166.7770 C.ar    1  UNL1        0.0146
     34 C         142.2540  141.0573  169.9696 C.3     1  UNL1        0.0189
     35 C         143.2147  142.2029  169.8480 C.3     1  UNL1        0.0044
     36 C         141.2933  139.9118  170.0911 C.3     1  UNL1        0.0044
     37 C         141.9684  141.4475  171.3895 C.3     1  UNL1        0.0044
     38 C         141.5724  137.6549  163.3085 C.2     1  UNL1        0.0692
     39 O         140.8013  137.4075  162.0459 O.co2   1  UNL1       -0.5475
     40 O         141.1568  136.9849  164.5846 O.co2   1  UNL1       -0.5475
@<TRIPOS>UNITY_ATOM_ATTR
39 1
charge -1
@<TRIPOS>BOND
     1    10    11    1
     2    11    12   ar
     3    12    13   ar
     4    13    16    1
     5    16    17   ar
     6    17    18   ar
     7    18    19   ar
     8    19    20   ar
     9    20    21   ar
    10    13    14   ar
    11    14    15   ar
    12    15     9    1
    13     9     8    1
    14     8     7    1
    15     7     1    1
    16     1     2   ar
    17     2     3   ar
    18     3     4   ar
    19     4    22    1
    20    23    22    1
    21    23    24    1
    22    24    25    2
    23    24    26   am
    24    26    28    1
    25    28    29   ar
    26    29    30   ar
    27    30    31   ar
    28    31    34    1
    29    34    35    1
    30    34    36    1
    31    34    37    1
    32    31    32   ar
    33    32    33   ar
    34    26    27    1
    35    27    38    1
    36    38    39   ar
    37    38    40   ar
    38     4     5   ar
    39     5     6   ar
    40    15    11   ar
    41     6     1   ar
    42    21    16   ar
    43    27    23    1
    44    33    28   ar
@<TRIPOS>MOLECULE
*****
 40 44 0 0 0
SMALL
GASTEIGER

@<TRIPOS>ATOM
      1 C         139.6056  141.2102  157.4005 C.ar    1  UNL1        0.1385
      2 C         140.0372  139.7911  157.6239 C.ar    1  UNL1        0.0366
      3 C         139.5090  139.0226  158.7990 C.ar    1  UNL1       -0.0011
      4 C         138.5493  139.6734  159.7505 C.ar    1  UNL1       -0.0214
      5 C         138.1177  141.0925  159.5272 C.ar    1  UNL1       -0.0011
      6 C         138.6459  141.8608  158.3521 C.ar    1  UNL1        0.0366
      7 O         140.1337  141.9786  156.2256 O.3     1  UNL1       -0.4750
      8 C         141.5505  142.4712  156.2271 C.3     1  UNL1        0.2118
      9 C         141.8502  143.8918  156.6036 C.3     1  UNL1        0.0960
     10 C         139.8425  146.4646  156.6002 C.3     1  UNL1        0.0738
     11 C         140.2743  145.6848  157.8066 C.ar    1  UNL1        0.1387
     12 O         139.8591  145.9506  159.2233 O.2     1  UNL1       -0.4392
     13 C         140.5253  144.9323  160.1004 C.ar    1  UNL1        0.2289
     14 N         141.3523  144.0372  159.2259 N.ar    1  UNL1       -0.2129
     15 C         141.1972  144.5022  157.8082 C.ar    1  UNL1        0.0960
     16 C         140.3885  144.8276  161.5905 C.ar    1  UNL1        0.0535
     17 C         141.5705  145.0994  162.4731 C.ar    1  UNL1        0.0046
     18 C         141.4337  144.9947  163.9632 C.ar    1  UNL1        0.0002
     19 C         140.1149  144.6181  164.5706 C.ar    1  UNL1        0.0000
     20 C         138.9329  144.3463  163.6880 C.ar    1  UNL1        0.0002
     21 C         139.0697  144.4510  162.1980 C.ar    1  UNL1        0.0046
     22 C         138.0212  138.9049  160.9256 C.3     1  UNL1        0.0375
     23 C         138.3950  139.3150  162.3192 C.3     1  UNL1        0.1052
     24 C         137.9555  140.3972  163.2602 C.2     1  UNL1        0.2315
     25 O         136.9603  141.5178  163.1976 O.2     1  UNL1       -0.2745
     26 N         138.9236  139.8949  164.2901 N.am    1  UNL1       -0.2546
     27 C         139.3630  138.8126  163.3489 C.3     1  UNL1        0.1249
     28 C         139.2973  140.3049  165.6837 C.ar    1  UNL1        0.0541
     29 C         140.1520  141.5175  165.9049 C.ar    1  UNL1        0.0146
     30 C         140.5258  141.9275  167.2985 C.ar    1  UNL1       -0.0030
     31 C         140.0448  141.1249  168.4710 C.ar    1  UNL1       -0.0227
     32 C         139.1901  139.9123  168.2496 C.ar    1  UNL1       -0.0030
     33 C         138.8164  139.5023  166.8560 C.ar    1  UNL1        0.0146
     34 C         140.4186  141.5350  169.8646 C.3     1  UNL1        0.0189
     35 C         140.4171  142.9741  169.4415 C.3     1  UNL1        0.0044
     36 C         140.4200  140.0958  170.2876 C.3     1  UNL1        0.0044
     37 C         140.7923  141.9450  171.2582 C.3     1  UNL1        0.0044
     38 C         140.3583  137.6921  163.4117 C.2     1  UNL1        0.0692
     39 O         141.0516  137.2339  162.1629 O.co2   1  UNL1       -0.5475
     40 O         140.6602  137.0298  164.7232 O.co2   1  UNL1       -0.5475
@<TRIPOS>UNITY_ATOM_ATTR
39 1
charge -1
@<TRIPOS>BOND
     1    10    11    1
     2    11    12   ar
     3    12    13   ar
     4    13    16    1
     5    16    17   ar
     6    17    18   ar
     7    18    19   ar
     8    19    20   ar
     9    20    21   ar
    10    13    14   ar
    11    14    15   ar
    12    15     9    1
    13     9     8    1
    14     8     7    1
    15     7     1    1
    16     1     2   ar
    17     2     3   ar
    18     3     4   ar
    19     4    22    1
    20    23    22    1
    21    23    24    1
    22    24    25    2
    23    24    26   am
    24    26    28    1
    25    28    29   ar
    26    29    30   ar
    27    30    31   ar
    28    31    34    1
    29    34    35    1
    30    34    36    1
    31    34    37    1
    32    31    32   ar
    33    32    33   ar
    34    26    27    1
    35    27    38    1
    36    38    39   ar
    37    38    40   ar
    38     4     5   ar
    39     5     6   ar
    40    15    11   ar
    41     6     1   ar
    42    21    16   ar
    43    27    23    1
    44    33    28   ar
@<TRIPOS>MOLECULE
*****
 40 44 0 0 0
SMALL
GASTEIGER

@<TRIPOS>ATOM
      1 C         140.7522  140.2999  157.3975 C.ar    1  UNL1        0.1385
      2 C         139.7625  141.2840  157.9468 C.ar    1  UNL1        0.0366
      3 C         138.8720  140.8940  159.0893 C.ar    1  UNL1       -0.0011
      4 C         138.9715  139.5197  159.6822 C.ar    1  UNL1       -0.0214
      5 C         139.9613  138.5356  159.1329 C.ar    1  UNL1       -0.0011
      6 C         140.8516  138.9257  157.9905 C.ar    1  UNL1        0.0366
      7 O         141.6426  140.6899  156.2551 O.3     1  UNL1       -0.4750
      8 C         143.1327  140.5964  156.3998 C.3     1  UNL1        0.2118
      9 C         143.9246  141.8054  156.8012 C.3     1  UNL1        0.0960
     10 C         142.0815  144.4537  157.2902 C.3     1  UNL1        0.0738
     11 C         142.8179  143.6847  158.3467 C.ar    1  UNL1        0.1387
     12 O         142.8364  143.9979  159.8136 O.2     1  UNL1       -0.4392
     13 C         143.6950  142.9741  160.4953 C.ar    1  UNL1        0.2289
     14 N         144.2072  142.0282  159.4499 N.ar    1  UNL1       -0.2129
     15 C         143.6651  142.4673  158.1220 C.ar    1  UNL1        0.0960
     16 C         143.9897  142.9080  161.9647 C.ar    1  UNL1        0.0535
     17 C         145.1341  142.0763  162.4634 C.ar    1  UNL1        0.0046
     18 C         145.4287  142.0101  163.9326 C.ar    1  UNL1        0.0002
     19 C         144.5791  142.7757  164.9032 C.ar    1  UNL1        0.0000
     20 C         143.4347  143.6074  164.4045 C.ar    1  UNL1        0.0002
     21 C         143.1401  143.6735  162.9352 C.ar    1  UNL1        0.0046
     22 C         138.0810  139.1297  160.8247 C.3     1  UNL1        0.0375
     23 C         138.4464  139.5179  162.2268 C.3     1  UNL1        0.1052
     24 C         138.0182  140.5998  163.1734 C.2     1  UNL1        0.2315
     25 O         137.0474  141.7415  163.1104 O.2     1  UNL1       -0.2745
     26 N         138.9630  140.0670  164.2096 N.am    1  UNL1       -0.2546
     27 C         139.3912  138.9851  163.2628 C.3     1  UNL1        0.1249
     28 C         139.3283  140.4553  165.6117 C.ar    1  UNL1        0.0541
     29 C         138.9228  139.5817  166.7616 C.ar    1  UNL1        0.0146
     30 C         139.2881  139.9700  168.1636 C.ar    1  UNL1       -0.0030
     31 C         140.0590  141.2319  168.4158 C.ar    1  UNL1       -0.0227
     32 C         140.4645  142.1054  167.2657 C.ar    1  UNL1       -0.0030
     33 C         140.0992  141.7171  165.8637 C.ar    1  UNL1        0.0146
     34 C         140.4243  141.6201  169.8178 C.3     1  UNL1        0.0189
     35 C         140.4839  140.1718  170.2034 C.3     1  UNL1        0.0044
     36 C         140.3648  143.0685  169.4323 C.3     1  UNL1        0.0044
     37 C         140.7896  142.0084  171.2199 C.3     1  UNL1        0.0044
     38 C         140.3620  137.8434  163.3260 C.2     1  UNL1        0.0692
     39 O         141.0351  137.3611  162.0752 O.co2   1  UNL1       -0.5475
     40 O         140.6597  137.1840  164.6399 O.co2   1  UNL1       -0.5475
@<TRIPOS>UNITY_ATOM_ATTR
39 1
charge -1
@<TRIPOS>BOND
     1    10    11    1
     2    11    12   ar
     3    12    13   ar
     4    13    16    1
     5    16    17   ar
     6    17    18   ar
     7    18    19   ar
     8    19    20   ar
     9    20    21   ar
    10    13    14   ar
    11    14    15   ar
    12    15     9    1
    13     9     8    1
    14     8     7    1
    15     7     1    1
    16     1     2   ar
    17     2     3   ar
    18     3     4   ar
    19     4    22    1
    20    23    22    1
    21    23    24    1
    22    24    25    2
    23    24    26   am
    24    26    28    1
    25    28    29   ar
    26    29    30   ar
    27    30    31   ar
    28    31    34    1
    29    34    35    1
    30    34    36    1
    31    34    37    1
    32    31    32   ar
    33    32    33   ar
    34    26    27    1
    35    27    38    1
    36    38    39   ar
    37    38    40   ar
    38     4     5   ar
    39     5     6   ar
    40    15    11   ar
    41     6     1   ar
    42    21    16   ar
    43    27    23    1
    44    33    28   ar
@<TRIPOS>MOLECULE
*****
 40 44 0 0 0
SMALL
GASTEIGER

@<TRIPOS>ATOM
      1 C         142.3274  140.0407  157.3477 C.ar    1  UNL1        0.1385
      2 C         142.7461  139.1413  158.4727 C.ar    1  UNL1        0.0366
      3 C         141.7324  138.6697  159.4729 C.ar    1  UNL1       -0.0011
      4 C         140.3002  139.0976  159.3479 C.ar    1  UNL1       -0.0214
      5 C         139.8816  139.9971  158.2229 C.ar    1  UNL1       -0.0011
      6 C         140.8953  140.4686  157.2228 C.ar    1  UNL1        0.0366
      7 O         143.3410  140.5123  156.3476 O.3     1  UNL1       -0.4750
      8 C         144.7655  140.7248  156.7666 C.3     1  UNL1        0.2118
      9 C         145.1919  142.0474  157.3312 C.3     1  UNL1        0.0960
     10 C         142.4892  143.8756  157.3886 C.3     1  UNL1        0.0738
     11 C         143.2786  143.4311  158.5841 C.ar    1  UNL1        0.1387
     12 O         142.9642  143.7488  160.0160 O.2     1  UNL1       -0.4392
     13 C         144.0122  143.1049  160.8746 C.ar    1  UNL1        0.2289
     14 N         144.9743  142.3892  159.9733 N.ar    1  UNL1       -0.2129
     15 C         144.5209  142.5908  158.5578 C.ar    1  UNL1        0.0960
     16 C         144.0853  143.1660  162.3716 C.ar    1  UNL1        0.0535
     17 C         143.9481  144.4832  163.0760 C.ar    1  UNL1        0.0046
     18 C         144.0212  144.5442  164.5730 C.ar    1  UNL1        0.0002
     19 C         144.2315  143.2881  165.3655 C.ar    1  UNL1        0.0000
     20 C         144.3686  141.9710  164.6610 C.ar    1  UNL1        0.0002
     21 C         144.2955  141.9100  163.1641 C.ar    1  UNL1        0.0046
     22 C         139.2866  138.6260  160.3481 C.3     1  UNL1        0.0375
     23 C         139.5027  138.8783  161.8109 C.3     1  UNL1        0.1052
     24 C         140.1617  138.1285  162.9304 C.2     1  UNL1        0.2315
     25 O         140.8776  136.8159  163.0512 O.2     1  UNL1       -0.2745
     26 N         139.8082  139.2351  163.8796 N.am    1  UNL1       -0.2546
     27 C         139.1492  139.9848  162.7599 C.3     1  UNL1        0.1249
     28 C         140.0243  139.4873  165.3423 C.ar    1  UNL1        0.0541
     29 C         138.8540  139.5109  166.2802 C.ar    1  UNL1        0.0146
     30 C         139.0701  139.7632  167.7429 C.ar    1  UNL1       -0.0030
     31 C         140.4566  139.9918  168.2678 C.ar    1  UNL1       -0.0227
     32 C         141.6269  139.9682  167.3298 C.ar    1  UNL1       -0.0030
     33 C         141.4108  139.7159  165.8671 C.ar    1  UNL1        0.0146
     34 C         140.6727  140.2440  169.7306 C.3     1  UNL1        0.0189
     35 C         142.0114  139.5725  169.6486 C.3     1  UNL1        0.0044
     36 C         139.3339  140.9156  169.8125 C.3     1  UNL1        0.0044
     37 C         140.8888  140.4963  171.1933 C.3     1  UNL1        0.0044
     38 C         138.4333  141.2974  162.6393 C.2     1  UNL1        0.0692
     39 O         139.2165  142.5681  162.4913 O.co2   1  UNL1       -0.5475
     40 O         136.9341  141.3393  162.6667 O.co2   1  UNL1       -0.5475
@<TRIPOS>UNITY_ATOM_ATTR
39 1
charge -1
@<TRIPOS>BOND
     1    10    11    1
     2    11    12   ar
     3    12    13   ar
     4    13    16    1
     5    16    17   ar
     6    17    18   ar
     7    18    19   ar
     8    19    20   ar
     9    20    21   ar
    10    13    14   ar
    11    14    15   ar
    12    15     9    1
    13     9     8    1
    14     8     7    1
    15     7     1    1
    16     1     2   ar
    17     2     3   ar
    18     3     4   ar
    19     4    22    1
    20    23    22    1
    21    23    24    1
    22    24    25    2
    23    24    26   am
    24    26    28    1
    25    28    29   ar
    26    29    30   ar
    27    30    31   ar
    28    31    34    1
    29    34    35    1
    30    34    36    1
    31    34    37    1
    32    31    32   ar
    33    32    33   ar
    34    26    27    1
    35    27    38    1
    36    38    39   ar
    37    38    40   ar
    38     4     5   ar
    39     5     6   ar
    40    15    11   ar
    41     6     1   ar
    42    21    16   ar
    43    27    23    1
    44    33    28   ar
@<TRIPOS>MOLECULE
*****
 40 44 0 0 0
SMALL
GASTEIGER

@<TRIPOS>ATOM
      1 C         142.0203  141.6149  157.1472 C.ar    1  UNL1        0.1385
      2 C         143.3779  141.9366  157.6981 C.ar    1  UNL1        0.0366
      3 C         143.9862  141.0605  158.7529 C.ar    1  UNL1       -0.0011
      4 C         143.2367  139.8628  159.2568 C.ar    1  UNL1       -0.0214
      5 C         141.8791  139.5411  158.7059 C.ar    1  UNL1       -0.0011
      6 C         141.2710  140.4172  157.6511 C.ar    1  UNL1        0.0366
      7 O         141.4120  142.4909  156.0924 O.3     1  UNL1       -0.4750
      8 C         139.9582  142.8529  156.1649 C.3     1  UNL1        0.2118
      9 C         139.5366  144.1377  156.8142 C.3     1  UNL1        0.0960
     10 C         142.2066  145.9150  157.4160 C.3     1  UNL1        0.0738
     11 C         141.2935  145.3191  158.4461 C.ar    1  UNL1        0.1387
     12 O         141.4473  145.4354  159.9336 O.2     1  UNL1       -0.4392
     13 C         140.3151  144.6904  160.5764 C.ar    1  UNL1        0.2289
     14 N         139.4616  144.1136  159.4861 N.ar    1  UNL1       -0.2129
     15 C         140.0662  144.5021  158.1695 C.ar    1  UNL1        0.0960
     16 C         140.0780  144.5473  162.0506 C.ar    1  UNL1        0.0535
     17 C         141.2411  144.4007  162.9865 C.ar    1  UNL1        0.0046
     18 C         141.0040  144.2576  164.4607 C.ar    1  UNL1        0.0002
     19 C         139.6039  144.2611  164.9990 C.ar    1  UNL1        0.0000
     20 C         138.4409  144.4078  164.0632 C.ar    1  UNL1        0.0002
     21 C         138.6780  144.5508  162.5890 C.ar    1  UNL1        0.0046
     22 C         143.8450  138.9867  160.3116 C.3     1  UNL1        0.0375
     23 C         143.6178  139.2918  161.7626 C.3     1  UNL1        0.1052
     24 C         142.8386  138.6499  162.8720 C.2     1  UNL1        0.2315
     25 O         141.9639  137.4371  162.9901 O.2     1  UNL1       -0.2745
     26 N         143.2964  139.7233  163.8146 N.am    1  UNL1       -0.2546
     27 C         144.0756  140.3651  162.7051 C.3     1  UNL1        0.1249
     28 C         143.0692  140.0283  165.2655 C.ar    1  UNL1        0.0541
     29 C         142.8811  141.4476  165.7130 C.ar    1  UNL1        0.0146
     30 C         142.6539  141.7526  167.1640 C.ar    1  UNL1       -0.0030
     31 C         142.6147  140.6383  168.1675 C.ar    1  UNL1       -0.0227
     32 C         142.8027  139.2191  167.7199 C.ar    1  UNL1       -0.0030
     33 C         143.0299  138.9141  166.2690 C.ar    1  UNL1        0.0146
     34 C         142.3874  140.9434  169.6184 C.3     1  UNL1        0.0189
     35 C         143.0771  142.2645  169.4487 C.3     1  UNL1        0.0044
     36 C         141.6976  139.6223  169.7882 C.3     1  UNL1        0.0044
     37 C         142.1601  141.2485  171.0694 C.3     1  UNL1        0.0044
     38 C         144.9503  141.5780  162.5871 C.2     1  UNL1        0.0692
     39 O         144.4971  142.7532  161.7725 O.co2   1  UNL1       -0.5475
     40 O         146.2782  141.6156  163.2836 O.co2   1  UNL1       -0.5475
@<TRIPOS>UNITY_ATOM_ATTR
39 1
charge -1
@<TRIPOS>BOND
     1    10    11    1
     2    11    12   ar
     3    12    13   ar
     4    13    16    1
     5    16    17   ar
     6    17    18   ar
     7    18    19   ar
     8    19    20   ar
     9    20    21   ar
    10    13    14   ar
    11    14    15   ar
    12    15     9    1
    13     9     8    1
    14     8     7    1
    15     7     1    1
    16     1     2   ar
    17     2     3   ar
    18     3     4   ar
    19     4    22    1
    20    23    22    1
    21    23    24    1
    22    24    25    2
    23    24    26   am
    24    26    28    1
    25    28    29   ar
    26    29    30   ar
    27    30    31   ar
    28    31    34    1
    29    34    35    1
    30    34    36    1
    31    34    37    1
    32    31    32   ar
    33    32    33   ar
    34    26    27    1
    35    27    38    1
    36    38    39   ar
    37    38    40   ar
    38     4     5   ar
    39     5     6   ar
    40    15    11   ar
    41     6     1   ar
    42    21    16   ar
    43    27    23    1
    44    33    28   ar
@<TRIPOS>MOLECULE
*****
 40 44 0 0 0
SMALL
GASTEIGER

@<TRIPOS>ATOM
      1 C         142.1117  140.5600  157.4203 C.ar    1  UNL1        0.1385
      2 C         143.0494  141.3109  158.3185 C.ar    1  UNL1        0.0366
      3 C         143.6892  140.6162  159.4840 C.ar    1  UNL1       -0.0011
      4 C         143.3911  139.1706  159.7511 C.ar    1  UNL1       -0.0214
      5 C         142.4534  138.4197  158.8529 C.ar    1  UNL1       -0.0011
      6 C         141.8137  139.1144  157.6875 C.ar    1  UNL1        0.0366
      7 O         141.4720  141.2547  156.2549 O.3     1  UNL1       -0.4750
      8 C         141.2103  142.7305  156.3130 C.3     1  UNL1        0.2118
      9 C         140.0358  143.2542  157.0852 C.3     1  UNL1        0.0960
     10 C         141.8851  145.8742  157.6900 C.3     1  UNL1        0.0738
     11 C         141.0949  145.0999  158.7029 C.ar    1  UNL1        0.1387
     12 O         141.0159  145.3940  160.1717 O.2     1  UNL1       -0.4392
     13 C         140.1171  144.3714  160.8015 C.ar    1  UNL1        0.2289
     14 N         139.6406  143.4454  159.7219 N.ar    1  UNL1       -0.2129
     15 C         140.2448  143.8956  158.4250 C.ar    1  UNL1        0.0960
     16 C         139.7579  144.2894  162.2556 C.ar    1  UNL1        0.0535
     17 C         138.3185  144.2038  162.6689 C.ar    1  UNL1        0.0046
     18 C         137.9594  144.1217  164.1229 C.ar    1  UNL1        0.0002
     19 C         139.0396  144.1253  165.1636 C.ar    1  UNL1        0.0000
     20 C         140.4790  144.2109  164.7503 C.ar    1  UNL1        0.0002
     21 C         140.8381  144.2930  163.2963 C.ar    1  UNL1        0.0046
     22 C         144.0309  138.4759  160.9166 C.3     1  UNL1        0.0375
     23 C         143.6993  138.9000  162.3167 C.3     1  UNL1        0.1052
     24 C         144.2907  139.8652  163.3007 C.2     1  UNL1        0.2315
     25 O         145.4586  140.8064  163.2925 O.2     1  UNL1       -0.2745
     26 N         143.2303  139.4996  164.2967 N.am    1  UNL1       -0.2546
     27 C         142.6389  138.5342  163.3125 C.3     1  UNL1        0.1249
     28 C         142.8986  139.9236  165.6968 C.ar    1  UNL1        0.0541
     29 C         142.4154  141.3183  165.9635 C.ar    1  UNL1        0.0146
     30 C         142.0838  141.7423  167.3635 C.ar    1  UNL1       -0.0030
     31 C         142.2355  140.7715  168.4970 C.ar    1  UNL1       -0.0227
     32 C         142.7187  139.3768  168.2303 C.ar    1  UNL1       -0.0030
     33 C         143.0503  138.9529  166.8302 C.ar    1  UNL1        0.0146
     34 C         141.9039  141.1955  169.8971 C.3     1  UNL1        0.0189
     35 C         140.6947  140.3080  169.8795 C.3     1  UNL1        0.0044
     36 C         143.1130  142.0830  169.9147 C.3     1  UNL1        0.0044
     37 C         141.5722  141.6195  171.2972 C.3     1  UNL1        0.0044
     38 C         141.4709  137.5931  163.3209 C.2     1  UNL1        0.0692
     39 O         140.6380  137.4203  162.0854 O.co2   1  UNL1       -0.5475
     40 O         141.1357  136.8248  164.5649 O.co2   1  UNL1       -0.5475
@<TRIPOS>UNITY_ATOM_ATTR
39 1
charge -1
@<TRIPOS>BOND
     1    10    11    1
     2    11    12   ar
     3    12    13   ar
     4    13    16    1
     5    16    17   ar
     6    17    18   ar
     7    18    19   ar
     8    19    20   ar
     9    20    21   ar
    10    13    14   ar
    11    14    15   ar
    12    15     9    1
    13     9     8    1
    14     8     7    1
    15     7     1    1
    16     1     2   ar
    17     2     3   ar
    18     3     4   ar
    19     4    22    1
    20    23    22    1
    21    23    24    1
    22    24    25    2
    23    24    26   am
    24    26    28    1
    25    28    29   ar
    26    29    30   ar
    27    30    31   ar
    28    31    34    1
    29    34    35    1
    30    34    36    1
    31    34    37    1
    32    31    32   ar
    33    32    33   ar
    34    26    27    1
    35    27    38    1
    36    38    39   ar
    37    38    40   ar
    38     4     5   ar
    39     5     6   ar
    40    15    11   ar
    41     6     1   ar
    42    21    16   ar
    43    27    23    1
    44    33    28   ar
@<TRIPOS>MOLECULE
*****
 40 44 0 0 0
SMALL
GASTEIGER

@<TRIPOS>ATOM
      1 C         138.8162  140.3163  157.8901 C.ar    1  UNL1        0.1385
      2 C         140.1223  139.5786  157.8892 C.ar    1  UNL1        0.0366
      3 C         140.5536  138.8156  159.1066 C.ar    1  UNL1       -0.0011
      4 C         139.6787  138.7904  160.3247 C.ar    1  UNL1       -0.0214
      5 C         138.3727  139.5280  160.3257 C.ar    1  UNL1       -0.0011
      6 C         137.9415  140.2910  159.1083 C.ar    1  UNL1        0.0366
      7 O         138.3850  141.0793  156.6728 O.3     1  UNL1       -0.4750
      8 C         138.4274  142.5787  156.6734 C.3     1  UNL1        0.2118
      9 C         139.6987  143.2929  157.0247 C.3     1  UNL1        0.0960
     10 C         141.8340  145.6119  157.8690 C.3     1  UNL1        0.0738
     11 C         140.8648  144.9290  158.7878 C.ar    1  UNL1        0.1387
     12 O         140.7069  145.1921  160.2561 O.2     1  UNL1       -0.4392
     13 C         139.6278  144.2888  160.7755 C.ar    1  UNL1        0.2289
     14 N         139.1189  143.4674  159.6282 N.ar    1  UNL1       -0.2129
     15 C         139.8833  143.8631  158.3998 C.ar    1  UNL1        0.0960
     16 C         139.1429  144.2192  162.1933 C.ar    1  UNL1        0.0535
     17 C         139.7967  145.0574  163.2516 C.ar    1  UNL1        0.0046
     18 C         139.3118  144.9877  164.6693 C.ar    1  UNL1        0.0002
     19 C         138.1731  144.0798  165.0287 C.ar    1  UNL1        0.0000
     20 C         137.5194  143.2416  163.9705 C.ar    1  UNL1        0.0002
     21 C         138.0043  143.3113  162.5527 C.ar    1  UNL1        0.0046
     22 C         140.1100  138.0274  161.5421 C.3     1  UNL1        0.0375
     23 C         140.4618  138.7616  162.8019 C.3     1  UNL1        0.1052
     24 C         139.7478  139.0695  164.0847 C.2     1  UNL1        0.2315
     25 O         138.3865  138.7706  164.6391 O.2     1  UNL1       -0.2745
     26 N         140.9592  139.8001  164.5835 N.am    1  UNL1       -0.2546
     27 C         141.6731  139.4922  163.3007 C.3     1  UNL1        0.1249
     28 C         141.3109  140.5344  165.8433 C.ar    1  UNL1        0.0541
     29 C         140.7185  141.8855  166.1142 C.ar    1  UNL1        0.0146
     30 C         141.0702  142.6198  167.3740 C.ar    1  UNL1       -0.0030
     31 C         142.0144  142.0029  168.3630 C.ar    1  UNL1       -0.0227
     32 C         142.6068  140.6517  168.0921 C.ar    1  UNL1       -0.0030
     33 C         142.2550  139.9175  166.8323 C.ar    1  UNL1        0.0146
     34 C         142.3661  142.7372  169.6228 C.3     1  UNL1        0.0189
     35 C         140.9778  143.3021  169.6811 C.3     1  UNL1        0.0044
     36 C         143.7545  142.1723  169.5644 C.3     1  UNL1        0.0044
     37 C         142.7178  143.4715  170.8826 C.3     1  UNL1        0.0044
     38 C         143.0345  139.7912  162.7463 C.2     1  UNL1        0.0692
     39 O         143.9211  138.6707  162.2898 O.co2   1  UNL1       -0.5475
     40 O         143.5093  141.2107  162.6486 O.co2   1  UNL1       -0.5475
@<TRIPOS>UNITY_ATOM_ATTR
39 1
charge -1
@<TRIPOS>BOND
     1    10    11    1
     2    11    12   ar
     3    12    13   ar
     4    13    16    1
     5    16    17   ar
     6    17    18   ar
     7    18    19   ar
     8    19    20   ar
     9    20    21   ar
    10    13    14   ar
    11    14    15   ar
    12    15     9    1
    13     9     8    1
    14     8     7    1
    15     7     1    1
    16     1     2   ar
    17     2     3   ar
    18     3     4   ar
    19     4    22    1
    20    23    22    1
    21    23    24    1
    22    24    25    2
    23    24    26   am
    24    26    28    1
    25    28    29   ar
    26    29    30   ar
    27    30    31   ar
    28    31    34    1
    29    34    35    1
    30    34    36    1
    31    34    37    1
    32    31    32   ar
    33    32    33   ar
    34    26    27    1
    35    27    38    1
    36    38    39   ar
    37    38    40   ar
    38     4     5   ar
    39     5     6   ar
    40    15    11   ar
    41     6     1   ar
    42    21    16   ar
    43    27    23    1
    44    33    28   ar
@<TRIPOS>MOLECULE
*****
 40 44 0 0 0
SMALL
GASTEIGER

@<TRIPOS>ATOM
      1 C         140.3225  140.4770  157.4023 C.ar    1  UNL1        0.1385
      2 C         140.5878  139.2736  158.2577 C.ar    1  UNL1        0.0366
      3 C         139.6897  138.9665  159.4193 C.ar    1  UNL1       -0.0011
      4 C         138.5264  139.8627  159.7253 C.ar    1  UNL1       -0.0214
      5 C         138.2612  141.0660  158.8699 C.ar    1  UNL1       -0.0011
      6 C         139.1593  141.3731  157.7084 C.ar    1  UNL1        0.0366
      7 O         141.2206  140.7841  156.2408 O.3     1  UNL1       -0.4750
      8 C         142.7101  140.7266  156.4087 C.3     1  UNL1        0.2118
      9 C         143.4743  141.9700  156.7553 C.3     1  UNL1        0.0960
     10 C         141.4115  144.4233  157.3684 C.3     1  UNL1        0.0738
     11 C         142.3156  143.7615  158.3657 C.ar    1  UNL1        0.1387
     12 O         142.4303  144.1111  159.8198 O.2     1  UNL1       -0.4392
     13 C         143.4494  143.1996  160.4367 C.ar    1  UNL1        0.2289
     14 N         143.9645  142.2865  159.3639 N.ar    1  UNL1       -0.2129
     15 C         143.2638  142.6338  158.0839 C.ar    1  UNL1        0.0960
     16 C         143.8781  143.2009  161.8742 C.ar    1  UNL1        0.0535
     17 C         144.6762  142.0541  162.4199 C.ar    1  UNL1        0.0046
     18 C         145.1049  142.0554  163.8573 C.ar    1  UNL1        0.0002
     19 C         144.7354  143.2035  164.7491 C.ar    1  UNL1        0.0000
     20 C         143.9372  144.3503  164.2034 C.ar    1  UNL1        0.0002
     21 C         143.5086  144.3490  162.7660 C.ar    1  UNL1        0.0046
     22 C         137.6283  139.5555  160.8869 C.3     1  UNL1        0.0375
     23 C         138.0839  139.8495  162.2855 C.3     1  UNL1        0.1052
     24 C         138.6999  139.0450  163.3914 C.2     1  UNL1        0.2315
     25 O         139.1155  137.6132  163.5571 O.2     1  UNL1       -0.2745
     26 N         138.7283  140.2652  164.2634 N.am    1  UNL1       -0.2546
     27 C         138.1122  141.0698  163.1573 C.3     1  UNL1        0.1249
     28 C         139.1839  140.5592  165.6619 C.ar    1  UNL1        0.0541
     29 C         139.9801  141.7981  165.9465 C.ar    1  UNL1        0.0146
     30 C         140.4357  142.0920  167.3451 C.ar    1  UNL1       -0.0030
     31 C         140.0951  141.1470  168.4591 C.ar    1  UNL1       -0.0227
     32 C         139.2988  139.9081  168.1744 C.ar    1  UNL1       -0.0030
     33 C         138.8433  139.6142  166.7759 C.ar    1  UNL1        0.0146
     34 C         140.5507  141.4409  169.8577 C.3     1  UNL1        0.0189
     35 C         140.6058  139.9705  170.1488 C.3     1  UNL1        0.0044
     36 C         140.4956  142.9114  169.5666 C.3     1  UNL1        0.0044
     37 C         141.0063  141.7349  171.2563 C.3     1  UNL1        0.0044
     38 C         137.6967  142.5015  162.9917 C.2     1  UNL1        0.0692
     39 O         137.3334  143.3209  164.1945 O.co2   1  UNL1       -0.5475
     40 O         137.6443  143.1138  161.6234 O.co2   1  UNL1       -0.5475
@<TRIPOS>UNITY_ATOM_ATTR
39 1
charge -1
@<TRIPOS>BOND
     1    10    11    1
     2    11    12   ar
     3    12    13   ar
     4    13    16    1
     5    16    17   ar
     6    17    18   ar
     7    18    19   ar
     8    19    20   ar
     9    20    21   ar
    10    13    14   ar
    11    14    15   ar
    12    15     9    1
    13     9     8    1
    14     8     7    1
    15     7     1    1
    16     1     2   ar
    17     2     3   ar
    18     3     4   ar
    19     4    22    1
    20    23    22    1
    21    23    24    1
    22    24    25    2
    23    24    26   am
    24    26    28    1
    25    28    29   ar
    26    29    30   ar
    27    30    31   ar
    28    31    34    1
    29    34    35    1
    30    34    36    1
    31    34    37    1
    32    31    32   ar
    33    32    33   ar
    34    26    27    1
    35    27    38    1
    36    38    39   ar
    37    38    40   ar
    38     4     5   ar
    39     5     6   ar
    40    15    11   ar
    41     6     1   ar
    42    21    16   ar
    43    27    23    1
    44    33    28   ar
