@<TRIPOS>MOLECULE
*****
 28 31 0 0 0
SMALL
GASTEIGER

@<TRIPOS>ATOM
      1 C         139.1598  141.6757  164.6872 C.ar    1  UNL1        0.0681
      2 C         137.9848  142.5628  164.4003 C.ar    1  UNL1        0.0208
      3 C         137.6865  142.9801  162.9907 C.ar    1  UNL1        0.0384
      4 C         138.5633  142.5102  161.8681 C.ar    1  UNL1        0.1386
      5 C         139.7384  141.6231  162.1550 C.ar    1  UNL1        0.0384
      6 C         140.0366  141.2059  163.5646 C.ar    1  UNL1        0.0208
      7 C         138.0417  139.1067  165.7595 C.3     1  UNL1        0.0723
      8 C         138.8990  139.9740  166.6330 C.ar    1  UNL1        0.1268
      9 N         139.1972  139.5567  168.0426 N.ar    1  UNL1       -0.2318
     10 C         140.0544  140.4241  168.9161 C.ar    1  UNL1        0.0872
     11 C         140.3526  140.0068  170.3257 C.ar    1  UNL1        0.0193
     12 C         141.2098  140.8741  171.1991 C.ar    1  UNL1        0.0015
     13 C         141.7689  142.1586  170.6630 C.ar    1  UNL1        0.0003
     14 C         141.4707  142.5759  169.2534 C.ar    1  UNL1        0.0063
     15 C         140.6135  141.7086  168.3800 C.ar    1  UNL1        0.0742
     16 C         140.3152  142.1258  166.9703 C.ar    1  UNL1        0.2669
     17 O         140.8743  143.4103  166.4342 O.2     1  UNL1       -0.2665
     18 N         139.4580  141.2585  166.0969 N.ar    1  UNL1       -0.2626
     19 O         138.2651  142.9274  160.4584 O.3     1  UNL1       -0.4754
     20 C         139.3593  142.9395  159.4324 C.3     1  UNL1        0.2068
     21 C         139.9695  144.2404  159.0020 C.3     1  UNL1        0.0646
     22 C         141.2942  144.6686  159.5606 C.3     1  UNL1        0.0759
     23 N         141.5238  144.6523  161.0428 N.3     1  UNL1       -0.2738
     24 C         142.5871  143.8760  161.7618 C.3     1  UNL1        0.0721
     25 C         142.4509  144.1533  163.2296 C.3     1  UNL1        0.0187
     26 C         141.3034  145.1010  163.4179 C.3     1  UNL1        0.0174
     27 C         140.7305  145.4093  162.0662 C.3     1  UNL1        0.0576
     28 C         139.5682  146.3156  161.7872 C.3     1  UNL1        0.0173
@<TRIPOS>BOND
     1     7     8    1
     2     8     9   ar
     3     9    10   ar
     4    10    11   ar
     5    11    12   ar
     6    12    13   ar
     7    13    14   ar
     8    14    15   ar
     9    15    16   ar
    10    16    17    2
    11    16    18   ar
    12    18     1    1
    13     1     2   ar
    14     2     3   ar
    15     3     4   ar
    16     4    19    1
    17    19    20    1
    18    20    21    1
    19    21    22    1
    20    22    23    1
    21    23    24    1
    22    24    25    1
    23    25    26    1
    24    26    27    1
    25    27    28    1
    26     4     5   ar
    27     5     6   ar
    28    18     8   ar
    29     6     1   ar
    30    15    10   ar
    31    27    23    1
@<TRIPOS>MOLECULE
*****
 28 31 0 0 0
SMALL
GASTEIGER

@<TRIPOS>ATOM
      1 C         139.1620  141.6523  164.6373 C.ar    1  UNL1        0.0681
      2 C         138.0047  142.5590  164.3398 C.ar    1  UNL1        0.0208
      3 C         137.7106  142.9600  162.9247 C.ar    1  UNL1        0.0384
      4 C         138.5738  142.4543  161.8071 C.ar    1  UNL1        0.1386
      5 C         139.7311  141.5476  162.1046 C.ar    1  UNL1        0.0384
      6 C         140.0253  141.1466  163.5197 C.ar    1  UNL1        0.0208
      7 C         138.0310  139.1016  165.7395 C.3     1  UNL1        0.0723
      8 C         138.8906  139.9759  166.6036 C.ar    1  UNL1        0.1268
      9 N         139.1847  139.5749  168.0188 N.ar    1  UNL1       -0.2318
     10 C         140.0443  140.4493  168.8829 C.ar    1  UNL1        0.0872
     11 C         140.3384  140.0482  170.2980 C.ar    1  UNL1        0.0193
     12 C         141.1980  140.9225  171.1621 C.ar    1  UNL1        0.0015
     13 C         141.7635  142.1979  170.6110 C.ar    1  UNL1        0.0003
     14 C         141.4694  142.5989  169.1959 C.ar    1  UNL1        0.0063
     15 C         140.6098  141.7246  168.3318 C.ar    1  UNL1        0.0742
     16 C         140.3157  142.1256  166.9166 C.ar    1  UNL1        0.2669
     17 O         140.8813  143.4009  166.3655 O.2     1  UNL1       -0.2665
     18 N         139.4561  141.2513  166.0525 N.ar    1  UNL1       -0.2626
     19 O         138.2797  142.8553  160.3918 O.3     1  UNL1       -0.4754
     20 C         139.3788  142.8645  159.3711 C.3     1  UNL1        0.2068
     21 C         139.8140  144.1583  158.7493 C.3     1  UNL1        0.0646
     22 C         140.8928  144.9757  159.3958 C.3     1  UNL1        0.0759
     23 N         141.0630  144.9487  160.8859 N.3     1  UNL1       -0.2738
     24 C         140.2231  145.6909  161.8828 C.3     1  UNL1        0.0721
     25 C         140.7440  145.3758  163.2537 C.3     1  UNL1        0.0187
     26 C         141.9059  144.4389  163.1041 C.3     1  UNL1        0.0174
     27 C         142.1030  144.1750  161.6407 C.3     1  UNL1        0.0576
     28 C         143.1554  143.2923  161.0379 C.3     1  UNL1        0.0173
@<TRIPOS>BOND
     1     7     8    1
     2     8     9   ar
     3     9    10   ar
     4    10    11   ar
     5    11    12   ar
     6    12    13   ar
     7    13    14   ar
     8    14    15   ar
     9    15    16   ar
    10    16    17    2
    11    16    18   ar
    12    18     1    1
    13     1     2   ar
    14     2     3   ar
    15     3     4   ar
    16     4    19    1
    17    19    20    1
    18    20    21    1
    19    21    22    1
    20    22    23    1
    21    23    24    1
    22    24    25    1
    23    25    26    1
    24    26    27    1
    25    27    28    1
    26     4     5   ar
    27     5     6   ar
    28    18     8   ar
    29     6     1   ar
    30    15    10   ar
    31    27    23    1
@<TRIPOS>MOLECULE
*****
 28 31 0 0 0
SMALL
GASTEIGER

@<TRIPOS>ATOM
      1 C         139.1972  141.2942  164.5697 C.ar    1  UNL1        0.0681
      2 C         137.8153  141.6368  164.0977 C.ar    1  UNL1        0.0208
      3 C         137.5646  141.9055  162.6434 C.ar    1  UNL1        0.0384
      4 C         138.6958  141.8316  161.6612 C.ar    1  UNL1        0.1386
      5 C         140.0778  141.4890  162.1332 C.ar    1  UNL1        0.0384
      6 C         140.3285  141.2203  163.5875 C.ar    1  UNL1        0.0208
      7 C         138.2348  138.7380  165.8104 C.3     1  UNL1        0.0723
      8 C         138.9667  139.7474  166.6444 C.ar    1  UNL1        0.1268
      9 N         139.2174  139.4787  168.0986 N.ar    1  UNL1       -0.2318
     10 C         139.9493  140.4881  168.9326 C.ar    1  UNL1        0.0872
     11 C         140.1999  140.2194  170.3869 C.ar    1  UNL1        0.0193
     12 C         140.9318  141.2288  171.2208 C.ar    1  UNL1        0.0015
     13 C         141.4130  142.5069  170.6004 C.ar    1  UNL1        0.0003
     14 C         141.1624  142.7756  169.1462 C.ar    1  UNL1        0.0063
     15 C         140.4305  141.7662  168.3123 C.ar    1  UNL1        0.0742
     16 C         140.1798  142.0349  166.8579 C.ar    1  UNL1        0.2669
     17 O         140.6610  143.3131  166.2376 O.2     1  UNL1       -0.2665
     18 N         139.4479  141.0255  166.0240 N.ar    1  UNL1       -0.2626
     19 O         138.4451  142.1003  160.2068 O.3     1  UNL1       -0.4754
     20 C         138.3031  140.9568  159.2465 C.3     1  UNL1        0.2068
     21 C         139.5147  140.1847  158.8153 C.3     1  UNL1        0.0646
     22 C         139.6380  138.7296  159.1580 C.3     1  UNL1        0.0759
     23 N         140.1309  138.3176  160.5134 N.3     1  UNL1       -0.2738
     24 C         141.5628  138.0937  160.9004 C.3     1  UNL1        0.0721
     25 C         141.5955  137.6948  162.3460 C.3     1  UNL1        0.0187
     26 C         140.1837  137.6720  162.8525 C.3     1  UNL1        0.0174
     27 C         139.2786  138.0569  161.7199 C.3     1  UNL1        0.0576
     28 C         137.7836  138.1626  161.7828 C.3     1  UNL1        0.0173
@<TRIPOS>BOND
     1     7     8    1
     2     8     9   ar
     3     9    10   ar
     4    10    11   ar
     5    11    12   ar
     6    12    13   ar
     7    13    14   ar
     8    14    15   ar
     9    15    16   ar
    10    16    17    2
    11    16    18   ar
    12    18     1    1
    13     1     2   ar
    14     2     3   ar
    15     3     4   ar
    16     4    19    1
    17    19    20    1
    18    20    21    1
    19    21    22    1
    20    22    23    1
    21    23    24    1
    22    24    25    1
    23    25    26    1
    24    26    27    1
    25    27    28    1
    26     4     5   ar
    27     5     6   ar
    28    18     8   ar
    29     6     1   ar
    30    15    10   ar
    31    27    23    1
@<TRIPOS>MOLECULE
*****
 28 31 0 0 0
SMALL
GASTEIGER

@<TRIPOS>ATOM
      1 C         139.4016  139.2779  164.6502 C.ar    1  UNL1        0.0681
      2 C         138.5029  139.9687  163.6678 C.ar    1  UNL1        0.0208
      3 C         138.4420  139.4957  162.2457 C.ar    1  UNL1        0.0384
      4 C         139.2798  138.3318  161.8059 C.ar    1  UNL1        0.1386
      5 C         140.1785  137.6410  162.7883 C.ar    1  UNL1        0.0384
      6 C         140.2394  138.1140  164.2104 C.ar    1  UNL1        0.0208
      7 C         137.7235  137.9427  166.7481 C.3     1  UNL1        0.0723
      8 C         138.6234  139.0833  167.1214 C.ar    1  UNL1        0.1268
      9 N         138.6842  139.5563  168.5435 N.ar    1  UNL1       -0.2318
     10 C         139.5841  140.6970  168.9167 C.ar    1  UNL1        0.0872
     11 C         139.6449  141.1700  170.3389 C.ar    1  UNL1        0.0193
     12 C         140.5447  142.3106  170.7120 C.ar    1  UNL1        0.0015
     13 C         141.3837  142.9782  169.6630 C.ar    1  UNL1        0.0003
     14 C         141.3229  142.5052  168.2409 C.ar    1  UNL1        0.0063
     15 C         140.4231  141.3646  167.8677 C.ar    1  UNL1        0.0742
     16 C         140.3623  140.8915  166.4455 C.ar    1  UNL1        0.2669
     17 O         141.2013  141.5591  165.3966 O.2     1  UNL1       -0.2665
     18 N         139.4624  139.7509  166.0724 N.ar    1  UNL1       -0.2626
     19 O         139.2190  137.8588  160.3837 O.3     1  UNL1       -0.4754
     20 C         139.6754  138.7587  159.2738 C.3     1  UNL1        0.2068
     21 C         141.0913  138.6869  158.7842 C.3     1  UNL1        0.0646
     22 C         142.1030  139.6842  159.2659 C.3     1  UNL1        0.0759
     23 N         142.6894  139.5535  160.6403 N.3     1  UNL1       -0.2738
     24 C         143.6800  138.5171  161.0814 C.3     1  UNL1        0.0721
     25 C         143.9911  138.7593  162.5287 C.3     1  UNL1        0.0187
     26 C         143.1927  139.9456  162.9821 C.3     1  UNL1        0.0174
     27 C         142.3882  140.4364  161.8150 C.3     1  UNL1        0.0576
     28 C         141.4477  141.6049  161.8215 C.3     1  UNL1        0.0173
@<TRIPOS>BOND
     1     7     8    1
     2     8     9   ar
     3     9    10   ar
     4    10    11   ar
     5    11    12   ar
     6    12    13   ar
     7    13    14   ar
     8    14    15   ar
     9    15    16   ar
    10    16    17    2
    11    16    18   ar
    12    18     1    1
    13     1     2   ar
    14     2     3   ar
    15     3     4   ar
    16     4    19    1
    17    19    20    1
    18    20    21    1
    19    21    22    1
    20    22    23    1
    21    23    24    1
    22    24    25    1
    23    25    26    1
    24    26    27    1
    25    27    28    1
    26     4     5   ar
    27     5     6   ar
    28    18     8   ar
    29     6     1   ar
    30    15    10   ar
    31    27    23    1
@<TRIPOS>MOLECULE
*****
 28 31 0 0 0
SMALL
GASTEIGER

@<TRIPOS>ATOM
      1 C         140.9258  139.2211  164.5332 C.ar    1  UNL1        0.0681
      2 C         141.1236  140.3640  163.5820 C.ar    1  UNL1        0.0208
      3 C         141.3570  140.0952  162.1249 C.ar    1  UNL1        0.0384
      4 C         141.3927  138.6835  161.6190 C.ar    1  UNL1        0.1386
      5 C         141.1950  137.5407  162.5702 C.ar    1  UNL1        0.0384
      6 C         140.9616  137.8095  164.0273 C.ar    1  UNL1        0.0208
      7 C         138.1475  139.0872  165.6568 C.3     1  UNL1        0.0723
      8 C         139.3032  139.4231  166.5522 C.ar    1  UNL1        0.1268
      9 N         139.0697  139.6919  168.0093 N.ar    1  UNL1       -0.2318
     10 C         140.2254  140.0277  168.9046 C.ar    1  UNL1        0.0872
     11 C         139.9919  140.2966  170.3617 C.ar    1  UNL1        0.0193
     12 C         141.1477  140.6324  171.2570 C.ar    1  UNL1        0.0015
     13 C         142.5369  140.6993  170.6952 C.ar    1  UNL1        0.0003
     14 C         142.7703  140.4305  169.2381 C.ar    1  UNL1        0.0063
     15 C         141.6146  140.0947  168.3428 C.ar    1  UNL1        0.0742
     16 C         141.8481  139.8258  166.8856 C.ar    1  UNL1        0.2669
     17 O         143.2373  139.8927  166.3238 O.2     1  UNL1       -0.2665
     18 N         140.6924  139.4900  165.9904 N.ar    1  UNL1       -0.2626
     19 O         141.6262  138.4147  160.1618 O.3     1  UNL1       -0.4754
     20 C         140.4992  138.5591  159.1826 C.3     1  UNL1        0.2068
     21 C         140.0213  139.9242  158.7850 C.3     1  UNL1        0.0646
     22 C         138.6107  140.3405  159.0800 C.3     1  UNL1        0.0759
     23 N         138.2644  140.9204  160.4193 N.3     1  UNL1       -0.2738
     24 C         138.3126  142.3731  160.7902 C.3     1  UNL1        0.0721
     25 C         137.8871  142.5001  162.2230 C.3     1  UNL1        0.0187
     26 C         137.5759  141.1259  162.7376 C.3     1  UNL1        0.0174
     27 C         137.8091  140.1496  161.6229 C.3     1  UNL1        0.0576
     28 C         137.6202  138.6635  161.6985 C.3     1  UNL1        0.0173
@<TRIPOS>BOND
     1     7     8    1
     2     8     9   ar
     3     9    10   ar
     4    10    11   ar
     5    11    12   ar
     6    12    13   ar
     7    13    14   ar
     8    14    15   ar
     9    15    16   ar
    10    16    17    2
    11    16    18   ar
    12    18     1    1
    13     1     2   ar
    14     2     3   ar
    15     3     4   ar
    16     4    19    1
    17    19    20    1
    18    20    21    1
    19    21    22    1
    20    22    23    1
    21    23    24    1
    22    24    25    1
    23    25    26    1
    24    26    27    1
    25    27    28    1
    26     4     5   ar
    27     5     6   ar
    28    18     8   ar
    29     6     1   ar
    30    15    10   ar
    31    27    23    1
@<TRIPOS>MOLECULE
*****
 28 31 0 0 0
SMALL
GASTEIGER

@<TRIPOS>ATOM
      1 C         142.9997  140.0666  164.8346 C.ar    1  UNL1        0.0681
      2 C         144.3207  140.5593  164.3225 C.ar    1  UNL1        0.0208
      3 C         144.6706  140.3978  162.8729 C.ar    1  UNL1        0.0384
      4 C         143.6995  139.7436  161.9354 C.ar    1  UNL1        0.1386
      5 C         142.3785  139.2509  162.4475 C.ar    1  UNL1        0.0384
      6 C         142.0286  139.4124  163.8971 C.ar    1  UNL1        0.0208
      7 C         143.7769  137.9471  166.8104 C.3     1  UNL1        0.0723
      8 C         143.0385  139.1684  167.2722 C.ar    1  UNL1        0.1268
      9 N         142.6886  139.3299  168.7219 N.ar    1  UNL1       -0.2318
     10 C         141.9502  140.5512  169.1837 C.ar    1  UNL1        0.0872
     11 C         141.6003  140.7127  170.6333 C.ar    1  UNL1        0.0193
     12 C         140.8619  141.9339  171.0951 C.ar    1  UNL1        0.0015
     13 C         140.4733  142.9937  170.1072 C.ar    1  UNL1        0.0003
     14 C         140.8232  142.8322  168.6575 C.ar    1  UNL1        0.0063
     15 C         141.5616  141.6109  168.1958 C.ar    1  UNL1        0.0742
     16 C         141.9114  141.4494  166.7461 C.ar    1  UNL1        0.2669
     17 O         141.5228  142.5091  165.7582 O.2     1  UNL1       -0.2665
     18 N         142.6499  140.2282  166.2843 N.ar    1  UNL1       -0.2626
     19 O         144.0494  139.5821  160.4857 O.3     1  UNL1       -0.4754
     20 C         143.8288  140.7169  159.5300 C.3     1  UNL1        0.2068
     21 C         142.8379  141.7935  159.8600 C.3     1  UNL1        0.0646
     22 C         143.3013  143.2079  160.0465 C.3     1  UNL1        0.0759
     23 N         143.2269  143.8492  161.4004 N.3     1  UNL1       -0.2738
     24 C         144.3396  143.9221  162.4039 C.3     1  UNL1        0.0721
     25 C         143.8271  144.6481  163.6123 C.3     1  UNL1        0.0187
     26 C         142.3978  145.0240  163.3558 C.3     1  UNL1        0.0174
     27 C         142.0269  144.5302  161.9887 C.3     1  UNL1        0.0576
     28 C         140.6905  144.6895  161.3263 C.3     1  UNL1        0.0173
@<TRIPOS>BOND
     1     7     8    1
     2     8     9   ar
     3     9    10   ar
     4    10    11   ar
     5    11    12   ar
     6    12    13   ar
     7    13    14   ar
     8    14    15   ar
     9    15    16   ar
    10    16    17    2
    11    16    18   ar
    12    18     1    1
    13     1     2   ar
    14     2     3   ar
    15     3     4   ar
    16     4    19    1
    17    19    20    1
    18    20    21    1
    19    21    22    1
    20    22    23    1
    21    23    24    1
    22    24    25    1
    23    25    26    1
    24    26    27    1
    25    27    28    1
    26     4     5   ar
    27     5     6   ar
    28    18     8   ar
    29     6     1   ar
    30    15    10   ar
    31    27    23    1
@<TRIPOS>MOLECULE
*****
 28 31 0 0 0
SMALL
GASTEIGER

@<TRIPOS>ATOM
      1 C         139.0690  140.0591  164.8795 C.ar    1  UNL1        0.0681
      2 C         137.9420  140.8113  164.2362 C.ar    1  UNL1        0.0208
      3 C         137.6388  140.6084  162.7813 C.ar    1  UNL1        0.0384
      4 C         138.4626  139.6531  161.9697 C.ar    1  UNL1        0.1386
      5 C         139.5897  138.9009  162.6130 C.ar    1  UNL1        0.0384
      6 C         139.8929  139.1038  164.0679 C.ar    1  UNL1        0.0208
      7 C         137.6728  138.3954  166.9490 C.3     1  UNL1        0.0723
      8 C         138.6741  139.4302  167.3693 C.ar    1  UNL1        0.1268
      9 N         138.9772  139.6332  168.8242 N.ar    1  UNL1       -0.2318
     10 C         139.9785  140.6681  169.2445 C.ar    1  UNL1        0.0872
     11 C         140.2816  140.8710  170.6994 C.ar    1  UNL1        0.0193
     12 C         141.2829  141.9058  171.1196 C.ar    1  UNL1        0.0015
     13 C         141.9810  142.7377  170.0849 C.ar    1  UNL1        0.0003
     14 C         141.6779  142.5347  168.6299 C.ar    1  UNL1        0.0063
     15 C         140.6766  141.4999  168.2097 C.ar    1  UNL1        0.0742
     16 C         140.3734  141.2969  166.7547 C.ar    1  UNL1        0.2669
     17 O         141.0715  142.1287  165.7200 O.2     1  UNL1       -0.2665
     18 N         139.3722  140.2621  166.3345 N.ar    1  UNL1       -0.2626
     19 O         138.1594  139.4501  160.5147 O.3     1  UNL1       -0.4754
     20 C         138.9555  140.1800  159.4738 C.3     1  UNL1        0.2068
     21 C         139.6336  141.4729  159.8182 C.3     1  UNL1        0.0646
     22 C         138.8417  142.7460  159.8648 C.3     1  UNL1        0.0759
     23 N         139.2187  143.8287  160.8320 N.3     1  UNL1       -0.2738
     24 C         138.7462  143.9474  162.2507 C.3     1  UNL1        0.0721
     25 C         139.3698  145.1750  162.8459 C.3     1  UNL1        0.0187
     26 C         140.2277  145.8150  161.7950 C.3     1  UNL1        0.0174
     27 C         140.1343  144.9830  160.5503 C.3     1  UNL1        0.0576
     28 C         140.8337  145.2571  159.2520 C.3     1  UNL1        0.0173
@<TRIPOS>BOND
     1     7     8    1
     2     8     9   ar
     3     9    10   ar
     4    10    11   ar
     5    11    12   ar
     6    12    13   ar
     7    13    14   ar
     8    14    15   ar
     9    15    16   ar
    10    16    17    2
    11    16    18   ar
    12    18     1    1
    13     1     2   ar
    14     2     3   ar
    15     3     4   ar
    16     4    19    1
    17    19    20    1
    18    20    21    1
    19    21    22    1
    20    22    23    1
    21    23    24    1
    22    24    25    1
    23    25    26    1
    24    26    27    1
    25    27    28    1
    26     4     5   ar
    27     5     6   ar
    28    18     8   ar
    29     6     1   ar
    30    15    10   ar
    31    27    23    1
@<TRIPOS>MOLECULE
*****
 28 31 0 0 0
SMALL
GASTEIGER

@<TRIPOS>ATOM
      1 C         141.5600  139.0487  164.2356 C.ar    1  UNL1        0.0681
      2 C         141.7072  140.2142  163.3029 C.ar    1  UNL1        0.0208
      3 C         141.6463  140.0000  161.8195 C.ar    1  UNL1        0.0384
      4 C         141.4383  138.6203  161.2689 C.ar    1  UNL1        0.1386
      5 C         141.2912  137.4549  162.2017 C.ar    1  UNL1        0.0384
      6 C         141.3520  137.6691  163.6850 C.ar    1  UNL1        0.0208
      7 C         144.1606  138.7158  165.6938 C.3     1  UNL1        0.0723
      8 C         142.9212  139.0965  166.4481 C.ar    1  UNL1        0.1268
      9 N         142.9821  139.3108  167.9315 N.ar    1  UNL1       -0.2318
     10 C         141.7427  139.6915  168.6858 C.ar    1  UNL1        0.0872
     11 C         141.8036  139.9057  170.1692 C.ar    1  UNL1        0.0193
     12 C         140.5642  140.2864  170.9234 C.ar    1  UNL1        0.0015
     13 C         139.2639  140.4528  170.1944 C.ar    1  UNL1        0.0003
     14 C         139.2030  140.2386  168.7110 C.ar    1  UNL1        0.0063
     15 C         140.4424  139.8579  167.9568 C.ar    1  UNL1        0.0742
     16 C         140.3815  139.6437  166.4733 C.ar    1  UNL1        0.2669
     17 O         139.0812  139.8101  165.7443 O.2     1  UNL1       -0.2665
     18 N         141.6209  139.2630  165.7191 N.ar    1  UNL1       -0.2626
     19 O         141.3774  138.4061  159.7855 O.3     1  UNL1       -0.4754
     20 C         140.0888  138.6223  159.0488 C.3     1  UNL1        0.2068
     21 C         139.6270  140.0152  158.7382 C.3     1  UNL1        0.0646
     22 C         138.2793  140.4800  159.2048 C.3     1  UNL1        0.0759
     23 N         138.1055  140.9920  160.6039 N.3     1  UNL1       -0.2738
     24 C         138.1425  142.4306  161.0273 C.3     1  UNL1        0.0721
     25 C         137.9240  142.4831  162.5104 C.3     1  UNL1        0.0187
     26 C         137.7520  141.0769  163.0037 C.3     1  UNL1        0.0174
     27 C         137.8642  140.1554  161.8253 C.3     1  UNL1        0.0576
     28 C         137.7544  138.6599  161.8621 C.3     1  UNL1        0.0173
@<TRIPOS>BOND
     1     7     8    1
     2     8     9   ar
     3     9    10   ar
     4    10    11   ar
     5    11    12   ar
     6    12    13   ar
     7    13    14   ar
     8    14    15   ar
     9    15    16   ar
    10    16    17    2
    11    16    18   ar
    12    18     1    1
    13     1     2   ar
    14     2     3   ar
    15     3     4   ar
    16     4    19    1
    17    19    20    1
    18    20    21    1
    19    21    22    1
    20    22    23    1
    21    23    24    1
    22    24    25    1
    23    25    26    1
    24    26    27    1
    25    27    28    1
    26     4     5   ar
    27     5     6   ar
    28    18     8   ar
    29     6     1   ar
    30    15    10   ar
    31    27    23    1
@<TRIPOS>MOLECULE
*****
 28 31 0 0 0
SMALL
GASTEIGER

@<TRIPOS>ATOM
      1 C         140.6561  139.2141  164.6850 C.ar    1  UNL1        0.0681
      2 C         140.8953  137.8045  164.2314 C.ar    1  UNL1        0.0208
      3 C         141.0220  137.4987  162.7684 C.ar    1  UNL1        0.0384
      4 C         140.9095  138.6026  161.7590 C.ar    1  UNL1        0.1386
      5 C         140.6704  140.0122  162.2127 C.ar    1  UNL1        0.0384
      6 C         140.5436  140.3179  163.6757 C.ar    1  UNL1        0.0208
      7 C         138.0025  138.9230  166.0538 C.3     1  UNL1        0.0723
      8 C         139.2026  139.3743  166.8325 C.ar    1  UNL1        0.1268
      9 N         139.0758  139.6800  168.2955 N.ar    1  UNL1       -0.2318
     10 C         140.2759  140.1312  169.0742 C.ar    1  UNL1        0.0872
     11 C         140.1491  140.4369  170.5372 C.ar    1  UNL1        0.0193
     12 C         141.3492  140.8881  171.3158 C.ar    1  UNL1        0.0015
     13 C         142.6760  141.0336  170.6314 C.ar    1  UNL1        0.0003
     14 C         142.8027  140.7279  169.1684 C.ar    1  UNL1        0.0063
     15 C         141.6027  140.2767  168.3898 C.ar    1  UNL1        0.0742
     16 C         141.7294  139.9710  166.9267 C.ar    1  UNL1        0.2669
     17 O         143.0562  140.1165  166.2423 O.2     1  UNL1       -0.2665
     18 N         140.5294  139.5198  166.1481 N.ar    1  UNL1       -0.2626
     19 O         141.0362  138.2969  160.2959 O.3     1  UNL1       -0.4754
     20 C         141.4188  139.3819  159.3334 C.3     1  UNL1        0.2068
     21 C         142.8630  139.6172  159.0038 C.3     1  UNL1        0.0646
     22 C         143.9087  139.4732  160.0696 C.3     1  UNL1        0.0759
     23 N         144.1556  140.5949  161.0344 N.3     1  UNL1       -0.2738
     24 C         144.2390  142.0524  160.6893 C.3     1  UNL1        0.0721
     25 C         144.4975  142.8144  161.9552 C.3     1  UNL1        0.0187
     26 C         144.5739  141.8279  163.0827 C.3     1  UNL1        0.0174
     27 C         144.3626  140.4562  162.5135 C.3     1  UNL1        0.0576
     28 C         144.3589  139.1714  163.2877 C.3     1  UNL1        0.0173
@<TRIPOS>BOND
     1     7     8    1
     2     8     9   ar
     3     9    10   ar
     4    10    11   ar
     5    11    12   ar
     6    12    13   ar
     7    13    14   ar
     8    14    15   ar
     9    15    16   ar
    10    16    17    2
    11    16    18   ar
    12    18     1    1
    13     1     2   ar
    14     2     3   ar
    15     3     4   ar
    16     4    19    1
    17    19    20    1
    18    20    21    1
    19    21    22    1
    20    22    23    1
    21    23    24    1
    22    24    25    1
    23    25    26    1
    24    26    27    1
    25    27    28    1
    26     4     5   ar
    27     5     6   ar
    28    18     8   ar
    29     6     1   ar
    30    15    10   ar
    31    27    23    1
