@<TRIPOS>MOLECULE
*****
 26 29 0 0 0
SMALL
GASTEIGER

@<TRIPOS>ATOM
      1 C         139.6856  138.4888  163.6778 C.ar    1  UNL1        0.1366
      2 C         138.7446  137.8211  164.6362 C.ar    1  UNL1        0.0353
      3 C         138.5890  138.3550  166.0293 C.ar    1  UNL1        0.0630
      4 CL        137.6479  137.6872  166.9877 Cl      1  UNL1       -0.0821
      5 C         139.3745  139.5567  166.4640 C.ar    1  UNL1        0.0564
      6 C         139.4296  140.3034  167.7637 C.ar    1  UNL1        0.0730
      7 CL        138.6470  139.9779  169.0013 Cl      1  UNL1       -0.0810
      8 C         140.4047  141.4326  167.6086 C.ar    1  UNL1        0.0486
      9 N         140.9522  141.3838  166.2130 N.ar    1  UNL1       -0.3160
     10 C         140.3155  140.2244  165.5056 C.ar    1  UNL1        0.1453
     11 N         140.4710  139.6905  164.1125 N.ar    1  UNL1       -0.2236
     12 C         141.9596  142.3285  165.6276 C.3     1  UNL1        0.1023
     13 C         143.3888  142.2757  166.0799 C.3     1  UNL1        0.0254
     14 C         144.3960  143.2205  165.4944 C.3     1  UNL1        0.0191
     15 C         143.9742  144.2180  164.4566 C.3     1  UNL1        0.0687
     16 N         142.5450  144.2708  164.0043 N.3     1  UNL1       -0.2959
     17 C         141.5377  143.3260  164.5898 C.3     1  UNL1        0.0914
     18 H         142.5488  144.1100  162.9970 H       1  UNL1        0.1233
     19 N         138.6426  137.8289  161.3916 N.am    1  UNL1       -0.3241
     20 C         139.8411  137.9549  162.2847 C.2     1  UNL1        0.2606
     21 O         141.1952  137.5469  161.7847 O.2     1  UNL1       -0.2687
     22 H         138.7447  137.4785  160.4772 H       1  UNL1        0.1453
     23 H         137.7539  138.0967  161.7197 H       1  UNL1        0.1453
     24 C         140.7684  142.4347  168.6640 C.3     1  UNL1        0.0392
     25 C         140.4075  143.6202  169.5091 C.3     1  UNL1        0.0063
     26 C         141.7592  142.9847  169.6466 C.3     1  UNL1        0.0063
@<TRIPOS>BOND
     1    19    20   am
     2    20    21    2
     3    20     1    1
     4     1     2   ar
     5     2     3   ar
     6     3     4    1
     7     3     5   ar
     8     5     6   ar
     9     6     7    1
    10     6     8   ar
    11     8    24    1
    12    24    25    1
    13    25    26    1
    14     8     9   ar
    15    12     9    1
    16    12    13    1
    17    13    14    1
    18    14    15    1
    19    15    16    1
    20    16    17    1
    21     9    10   ar
    22    10    11   ar
    23    11     1   ar
    24    10     5   ar
    25    26    24    1
    26    17    12    1
    27    19    22    1
    28    19    23    1
    29    16    18    1
@<TRIPOS>MOLECULE
*****
 26 29 0 0 0
SMALL
GASTEIGER

@<TRIPOS>ATOM
      1 C         141.9984  141.9751  169.3270 C.ar    1  UNL1        0.1366
      2 C         140.7095  141.5680  169.9772 C.ar    1  UNL1        0.0353
      3 C         139.7439  140.6867  169.2415 C.ar    1  UNL1        0.0630
      4 CL        138.4549  140.2796  169.8918 Cl      1  UNL1       -0.0821
      5 C         140.0674  140.2126  167.8557 C.ar    1  UNL1        0.0564
      6 C         139.3165  139.3426  166.8917 C.ar    1  UNL1        0.0730
      7 CL        137.9761  138.7137  167.1316 Cl      1  UNL1       -0.0810
      8 C         140.1415  139.2120  165.6457 C.ar    1  UNL1        0.0486
      9 N         141.4022  140.0013  165.8397 N.ar    1  UNL1       -0.3160
     10 C         141.3563  140.6197  167.2055 C.ar    1  UNL1        0.1453
     11 N         142.3219  141.5010  167.9412 N.ar    1  UNL1       -0.2236
     12 C         142.5135  140.1467  164.8428 C.3     1  UNL1        0.1023
     13 C         143.7843  139.3691  165.0175 C.3     1  UNL1        0.0254
     14 C         144.8955  139.5146  164.0207 C.3     1  UNL1        0.0191
     15 C         144.7362  140.4376  162.8491 C.3     1  UNL1        0.0687
     16 N         143.4654  141.2152  162.6744 N.3     1  UNL1       -0.2959
     17 C         142.3541  141.0698  163.6712 C.3     1  UNL1        0.0914
     18 H         143.0824  140.9532  161.7661 H       1  UNL1        0.1233
     19 N         144.4224  142.5073  170.0958 N.am    1  UNL1       -0.3241
     20 C         142.9640  142.8563  170.0627 C.2     1  UNL1        0.2606
     21 O         142.4711  144.0865  170.7652 O.2     1  UNL1       -0.2687
     22 H         145.0561  143.0857  170.5787 H       1  UNL1        0.1453
     23 H         144.7459  141.6998  169.6348 H       1  UNL1        0.1453
     24 C         139.7707  138.4295  164.4208 C.3     1  UNL1        0.0392
     25 C         140.1690  137.5635  163.2626 C.3     1  UNL1        0.0063
     26 C         138.7303  137.9402  163.4576 C.3     1  UNL1        0.0063
@<TRIPOS>BOND
     1    19    20   am
     2    20    21    2
     3    20     1    1
     4     1     2   ar
     5     2     3   ar
     6     3     4    1
     7     3     5   ar
     8     5     6   ar
     9     6     7    1
    10     6     8   ar
    11     8    24    1
    12    24    25    1
    13    25    26    1
    14     8     9   ar
    15    12     9    1
    16    12    13    1
    17    13    14    1
    18    14    15    1
    19    15    16    1
    20    16    17    1
    21     9    10   ar
    22    10    11   ar
    23    11     1   ar
    24    10     5   ar
    25    26    24    1
    26    17    12    1
    27    19    22    1
    28    19    23    1
    29    16    18    1
@<TRIPOS>MOLECULE
*****
 26 29 0 0 0
SMALL
GASTEIGER

@<TRIPOS>ATOM
      1 C         141.2134  141.8636  169.8107 C.ar    1  UNL1        0.1366
      2 C         141.6287  140.4905  170.2487 C.ar    1  UNL1        0.0353
      3 C         142.3365  139.5795  169.2900 C.ar    1  UNL1        0.0630
      4 CL        142.7519  138.2063  169.7281 Cl      1  UNL1       -0.0821
      5 C         142.6290  140.0416  167.8933 C.ar    1  UNL1        0.0564
      6 C         143.3066  139.3709  166.7353 C.ar    1  UNL1        0.0730
      7 CL        143.8801  137.9849  166.7317 Cl      1  UNL1       -0.0810
      8 C         143.3100  140.3295  165.5816 C.ar    1  UNL1        0.0486
      9 N         142.6345  141.5927  166.0265 N.ar    1  UNL1       -0.3160
     10 C         142.2137  141.4148  167.4553 C.ar    1  UNL1        0.1453
     11 N         141.5058  142.3258  168.4140 N.ar    1  UNL1       -0.2236
     12 C         142.4180  142.8186  165.1897 C.3     1  UNL1        0.1023
     13 C         143.5931  143.6275  164.7261 C.3     1  UNL1        0.0254
     14 C         143.3764  144.8533  163.8894 C.3     1  UNL1        0.0191
     15 C         141.9847  145.2703  163.5161 C.3     1  UNL1        0.0687
     16 N         140.8096  144.4615  163.9797 N.3     1  UNL1       -0.2959
     17 C         141.0263  143.2356  164.8165 C.3     1  UNL1        0.0914
     18 H         140.3096  144.1620  163.1426 H       1  UNL1        0.1233
     19 N         140.0385  144.1255  170.3144 N.am    1  UNL1       -0.3241
     20 C         140.5055  142.7746  170.7694 C.2     1  UNL1        0.2606
     21 O         140.2648  142.3348  172.1830 O.2     1  UNL1       -0.2687
     22 H         139.5739  144.7234  170.9436 H       1  UNL1        0.1453
     23 H         140.1965  144.4142  169.3865 H       1  UNL1        0.1453
     24 C         143.8876  140.0703  164.2217 C.3     1  UNL1        0.0392
     25 C         144.8172  140.4572  163.1098 C.3     1  UNL1        0.0063
     26 C         143.9582  139.2346  162.9781 C.3     1  UNL1        0.0063
@<TRIPOS>BOND
     1    19    20   am
     2    20    21    2
     3    20     1    1
     4     1     2   ar
     5     2     3   ar
     6     3     4    1
     7     3     5   ar
     8     5     6   ar
     9     6     7    1
    10     6     8   ar
    11     8    24    1
    12    24    25    1
    13    25    26    1
    14     8     9   ar
    15    12     9    1
    16    12    13    1
    17    13    14    1
    18    14    15    1
    19    15    16    1
    20    16    17    1
    21     9    10   ar
    22    10    11   ar
    23    11     1   ar
    24    10     5   ar
    25    26    24    1
    26    17    12    1
    27    19    22    1
    28    19    23    1
    29    16    18    1
@<TRIPOS>MOLECULE
*****
 26 29 0 0 0
SMALL
GASTEIGER

@<TRIPOS>ATOM
      1 C         139.3088  138.6172  163.6562 C.ar    1  UNL1        0.1366
      2 C         138.2861  138.3833  164.7283 C.ar    1  UNL1        0.0353
      3 C         138.5565  138.8326  166.1336 C.ar    1  UNL1        0.0630
      4 CL        137.5336  138.5988  167.2057 Cl      1  UNL1       -0.0821
      5 C         139.8496  139.5157  166.4670 C.ar    1  UNL1        0.0564
      6 C         140.3921  140.0653  167.7529 C.ar    1  UNL1        0.0730
      7 CL        139.6983  140.0449  169.0827 Cl      1  UNL1       -0.0810
      8 C         141.7501  140.6387  167.4757 C.ar    1  UNL1        0.0486
      9 N         142.0470  140.4436  166.0183 N.ar    1  UNL1       -0.3160
     10 C         140.8723  139.7495  165.3949 C.ar    1  UNL1        0.1453
     11 N         140.6019  139.3003  163.9896 N.ar    1  UNL1       -0.2236
     12 C         143.2986  140.8680  165.3090 C.3     1  UNL1        0.1023
     13 C         143.6432  142.3240  165.2021 C.3     1  UNL1        0.0254
     14 C         144.8949  142.7483  164.4927 C.3     1  UNL1        0.0191
     15 C         145.8019  141.7167  163.8902 C.3     1  UNL1        0.0687
     16 N         145.4573  140.2607  163.9970 N.3     1  UNL1       -0.2959
     17 C         144.2057  139.8364  164.7064 C.3     1  UNL1        0.0914
     18 H         146.2355  139.8084  164.4768 H       1  UNL1        0.1233
     19 N         140.1769  137.9708  161.2944 N.am    1  UNL1       -0.3241
     20 C         139.0384  138.1679  162.2509 C.2     1  UNL1        0.2606
     21 O         137.6296  137.9157  161.8020 O.2     1  UNL1       -0.2687
     22 H         139.9994  137.6759  160.3720 H       1  UNL1        0.1453
     23 H         141.1016  138.1362  161.5889 H       1  UNL1        0.1453
     24 C         142.6529  141.2925  168.4795 C.3     1  UNL1        0.0392
     25 C         143.3470  141.2731  169.8091 C.3     1  UNL1        0.0063
     26 C         143.5222  142.4444  168.8887 C.3     1  UNL1        0.0063
@<TRIPOS>BOND
     1    19    20   am
     2    20    21    2
     3    20     1    1
     4     1     2   ar
     5     2     3   ar
     6     3     4    1
     7     3     5   ar
     8     5     6   ar
     9     6     7    1
    10     6     8   ar
    11     8    24    1
    12    24    25    1
    13    25    26    1
    14     8     9   ar
    15    12     9    1
    16    12    13    1
    17    13    14    1
    18    14    15    1
    19    15    16    1
    20    16    17    1
    21     9    10   ar
    22    10    11   ar
    23    11     1   ar
    24    10     5   ar
    25    26    24    1
    26    17    12    1
    27    19    22    1
    28    19    23    1
    29    16    18    1
@<TRIPOS>MOLECULE
*****
 26 29 0 0 0
SMALL
GASTEIGER

@<TRIPOS>ATOM
      1 C         142.9896  143.1581  163.7114 C.ar    1  UNL1        0.1366
      2 C         143.5329  143.1849  165.1093 C.ar    1  UNL1        0.0353
      3 C         142.9029  142.3381  166.1752 C.ar    1  UNL1        0.0630
      4 CL        143.4463  142.3650  167.5731 Cl      1  UNL1       -0.0821
      5 C         141.7296  141.4646  165.8432 C.ar    1  UNL1        0.0564
      6 C         140.9073  140.5283  166.6781 C.ar    1  UNL1        0.0730
      7 CL        141.1023  140.2469  168.1385 Cl      1  UNL1       -0.0810
      8 C         139.8558  139.9228  165.7962 C.ar    1  UNL1        0.0486
      9 N         140.0282  140.4849  164.4162 N.ar    1  UNL1       -0.3160
     10 C         141.1863  141.4378  164.4453 C.ar    1  UNL1        0.1453
     11 N         141.8163  142.2846  163.3794 N.ar    1  UNL1       -0.2236
     12 C         139.1897  140.1525  163.2177 C.3     1  UNL1        0.1023
     13 C         139.5635  138.9963  162.3382 C.3     1  UNL1        0.0254
     14 C         138.7250  138.6640  161.1397 C.3     1  UNL1        0.0191
     15 C         137.5128  139.4879  160.8206 C.3     1  UNL1        0.0687
     16 N         137.1391  140.6441  161.7001 N.3     1  UNL1       -0.2959
     17 C         137.9775  140.9764  162.8986 C.3     1  UNL1        0.0914
     18 H         136.1958  140.4609  162.0423 H       1  UNL1        0.1233
     19 N         143.8504  145.4670  162.8880 N.am    1  UNL1       -0.3241
     20 C         143.6196  144.0049  162.6455 C.2     1  UNL1        0.2606
     21 O         144.0189  143.3895  161.3372 O.2     1  UNL1       -0.2687
     22 H         144.2639  146.0228  162.1884 H       1  UNL1        0.1453
     23 H         143.5884  145.8710  163.7468 H       1  UNL1        0.1453
     24 C         138.8146  138.9295  166.2199 C.3     1  UNL1        0.0392
     25 C         138.1647  137.5858  166.0719 C.3     1  UNL1        0.0063
     26 C         137.6612  138.5530  167.1019 C.3     1  UNL1        0.0063
@<TRIPOS>BOND
     1    19    20   am
     2    20    21    2
     3    20     1    1
     4     1     2   ar
     5     2     3   ar
     6     3     4    1
     7     3     5   ar
     8     5     6   ar
     9     6     7    1
    10     6     8   ar
    11     8    24    1
    12    24    25    1
    13    25    26    1
    14     8     9   ar
    15    12     9    1
    16    12    13    1
    17    13    14    1
    18    14    15    1
    19    15    16    1
    20    16    17    1
    21     9    10   ar
    22    10    11   ar
    23    11     1   ar
    24    10     5   ar
    25    26    24    1
    26    17    12    1
    27    19    22    1
    28    19    23    1
    29    16    18    1
@<TRIPOS>MOLECULE
*****
 26 29 0 0 0
SMALL
GASTEIGER

@<TRIPOS>ATOM
      1 C         140.2813  144.2855  162.8428 C.ar    1  UNL1        0.1366
      2 C         141.6737  144.7173  162.4899 C.ar    1  UNL1        0.0353
      3 C         142.8503  143.9187  162.9673 C.ar    1  UNL1        0.0630
      4 CL        144.2428  144.3505  162.6144 Cl      1  UNL1       -0.0821
      5 C         142.6344  142.6883  163.7976 C.ar    1  UNL1        0.0564
      6 C         143.5921  141.7076  164.4066 C.ar    1  UNL1        0.0730
      7 CL        145.0878  141.7563  164.3043 Cl      1  UNL1       -0.0810
      8 C         142.7916  140.6696  165.1359 C.ar    1  UNL1        0.0486
      9 N         141.3391  141.0088  164.9776 N.ar    1  UNL1       -0.3160
     10 C         141.2419  142.2565  164.1505 C.ar    1  UNL1        0.1453
     11 N         140.0654  143.0551  163.6731 N.ar    1  UNL1       -0.2236
     12 C         140.1861  140.2361  165.5465 C.3     1  UNL1        0.1023
     13 C         139.8770  140.3204  167.0119 C.3     1  UNL1        0.0254
     14 C         138.7240  139.5477  167.5807 C.3     1  UNL1        0.0191
     15 C         137.8802  138.6908  166.6843 C.3     1  UNL1        0.0687
     16 N         138.1894  138.6065  165.2189 N.3     1  UNL1       -0.2959
     17 C         139.3423  139.3792  164.6501 C.3     1  UNL1        0.0914
     18 H         137.3537  138.9171  164.7233 H       1  UNL1        0.1233
     19 N         137.7110  144.5915  162.6198 N.am    1  UNL1       -0.3241
     20 C         139.1047  145.0841  162.3654 C.2     1  UNL1        0.2606
     21 O         139.3219  146.3753  161.6335 O.2     1  UNL1       -0.2687
     22 H         136.9388  145.1157  162.3065 H       1  UNL1        0.1453
     23 H         137.5684  143.7441  163.1002 H       1  UNL1        0.1453
     24 C         143.3463  139.4981  165.8910 C.3     1  UNL1        0.0392
     25 C         143.3418  138.6132  167.1022 C.3     1  UNL1        0.0063
     26 C         144.3114  138.3539  165.9874 C.3     1  UNL1        0.0063
@<TRIPOS>BOND
     1    19    20   am
     2    20    21    2
     3    20     1    1
     4     1     2   ar
     5     2     3   ar
     6     3     4    1
     7     3     5   ar
     8     5     6   ar
     9     6     7    1
    10     6     8   ar
    11     8    24    1
    12    24    25    1
    13    25    26    1
    14     8     9   ar
    15    12     9    1
    16    12    13    1
    17    13    14    1
    18    14    15    1
    19    15    16    1
    20    16    17    1
    21     9    10   ar
    22    10    11   ar
    23    11     1   ar
    24    10     5   ar
    25    26    24    1
    26    17    12    1
    27    19    22    1
    28    19    23    1
    29    16    18    1
@<TRIPOS>MOLECULE
*****
 26 29 0 0 0
SMALL
GASTEIGER

@<TRIPOS>ATOM
      1 C         140.8009  142.0241  169.4789 C.ar    1  UNL1        0.1366
      2 C         141.6063  140.7931  169.7722 C.ar    1  UNL1        0.0353
      3 C         142.0744  139.9177  168.6477 C.ar    1  UNL1        0.0630
      4 CL        142.8799  138.6867  168.9410 Cl      1  UNL1       -0.0821
      5 C         141.7372  140.2732  167.2300 C.ar    1  UNL1        0.0564
      6 C         142.0580  139.6074  165.9248 C.ar    1  UNL1        0.0730
      7 CL        142.8473  138.3439  165.7501 Cl      1  UNL1       -0.0810
      8 C         141.4509  140.4268  164.8248 C.ar    1  UNL1        0.0486
      9 N         140.7548  141.5991  165.4503 N.ar    1  UNL1       -0.3160
     10 C         140.9318  141.5042  166.9368 C.ar    1  UNL1        0.1453
     11 N         140.4637  142.3796  168.0613 N.ar    1  UNL1       -0.2236
     12 C         140.0122  142.6771  164.7179 C.3     1  UNL1        0.1023
     13 C         138.5925  142.4516  164.2894 C.3     1  UNL1        0.0254
     14 C         137.8500  143.5296  163.5570 C.3     1  UNL1        0.0191
     15 C         138.5271  144.8331  163.2531 C.3     1  UNL1        0.0687
     16 N         139.9468  145.0587  163.6815 N.3     1  UNL1       -0.2959
     17 C         140.6893  143.9806  164.4139 C.3     1  UNL1        0.0914
     18 H         139.9446  145.8788  164.2879 H       1  UNL1        0.1233
     19 N         139.9562  144.3267  170.3360 N.am    1  UNL1       -0.3241
     20 C         140.3327  142.8995  170.6034 C.2     1  UNL1        0.2606
     21 O         140.2410  142.3479  171.9952 O.2     1  UNL1       -0.2687
     22 H         139.6489  144.9012  171.0741 H       1  UNL1        0.1453
     23 H         140.0164  144.6888  169.4225 H       1  UNL1        0.1453
     24 C         141.5265  140.1266  163.3570 C.3     1  UNL1        0.0392
     25 C         141.0114  140.3250  161.9623 C.3     1  UNL1        0.0063
     26 C         142.1726  139.4083  162.2097 C.3     1  UNL1        0.0063
@<TRIPOS>BOND
     1    19    20   am
     2    20    21    2
     3    20     1    1
     4     1     2   ar
     5     2     3   ar
     6     3     4    1
     7     3     5   ar
     8     5     6   ar
     9     6     7    1
    10     6     8   ar
    11     8    24    1
    12    24    25    1
    13    25    26    1
    14     8     9   ar
    15    12     9    1
    16    12    13    1
    17    13    14    1
    18    14    15    1
    19    15    16    1
    20    16    17    1
    21     9    10   ar
    22    10    11   ar
    23    11     1   ar
    24    10     5   ar
    25    26    24    1
    26    17    12    1
    27    19    22    1
    28    19    23    1
    29    16    18    1
@<TRIPOS>MOLECULE
*****
 26 29 0 0 0
SMALL
GASTEIGER

@<TRIPOS>ATOM
      1 C         143.2954  139.8091  163.1652 C.ar    1  UNL1        0.1366
      2 C         144.1308  138.9159  164.0335 C.ar    1  UNL1        0.0353
      3 C         143.8306  138.8001  165.4986 C.ar    1  UNL1        0.0630
      4 CL        144.6661  137.9067  166.3670 Cl      1  UNL1       -0.0821
      5 C         142.6951  139.5775  166.0953 C.ar    1  UNL1        0.0564
      6 C         142.1649  139.6647  167.4958 C.ar    1  UNL1        0.0730
      7 CL        142.7033  138.9332  168.6895 Cl      1  UNL1       -0.0810
      8 C         141.0018  140.6119  167.4929 C.ar    1  UNL1        0.0486
      9 N         140.8131  141.1101  166.0907 N.ar    1  UNL1       -0.3160
     10 C         141.8597  140.4707  165.2269 C.ar    1  UNL1        0.1453
     11 N         142.1598  140.5865  163.7618 N.ar    1  UNL1       -0.2236
     12 C         139.7624  142.0777  165.6326 C.3     1  UNL1        0.1023
     13 C         139.9577  143.5504  165.8397 C.3     1  UNL1        0.0254
     14 C         138.9069  144.5179  165.3816 C.3     1  UNL1        0.0191
     15 C         137.6610  144.0127  164.7164 C.3     1  UNL1        0.0687
     16 N         137.4658  142.5400  164.5093 N.3     1  UNL1       -0.2959
     17 C         138.5165  141.5725  164.9674 C.3     1  UNL1        0.0914
     18 H         137.3507  142.3964  163.5060 H       1  UNL1        0.1233
     19 N         144.4011  138.8623  161.0132 N.am    1  UNL1       -0.3241
     20 C         143.5955  139.9250  161.7001 C.2     1  UNL1        0.2606
     21 O         143.0902  141.1035  160.9218 O.2     1  UNL1       -0.2687
     22 H         144.5981  138.9383  160.0516 H       1  UNL1        0.1453
     23 H         144.7328  138.0888  161.5240 H       1  UNL1        0.1453
     24 C         140.1728  140.9939  168.6833 C.3     1  UNL1        0.0392
     25 C         139.1332  140.6473  169.7076 C.3     1  UNL1        0.0063
     26 C         139.7767  142.0021  169.7209 C.3     1  UNL1        0.0063
@<TRIPOS>BOND
     1    19    20   am
     2    20    21    2
     3    20     1    1
     4     1     2   ar
     5     2     3   ar
     6     3     4    1
     7     3     5   ar
     8     5     6   ar
     9     6     7    1
    10     6     8   ar
    11     8    24    1
    12    24    25    1
    13    25    26    1
    14     8     9   ar
    15    12     9    1
    16    12    13    1
    17    13    14    1
    18    14    15    1
    19    15    16    1
    20    16    17    1
    21     9    10   ar
    22    10    11   ar
    23    11     1   ar
    24    10     5   ar
    25    26    24    1
    26    17    12    1
    27    19    22    1
    28    19    23    1
    29    16    18    1
@<TRIPOS>MOLECULE
*****
 26 29 0 0 0
SMALL
GASTEIGER

@<TRIPOS>ATOM
      1 C         141.4594  141.4276  169.6586 C.ar    1  UNL1        0.1366
      2 C         140.1088  140.8177  169.8911 C.ar    1  UNL1        0.0353
      3 C         139.4061  140.1037  168.7747 C.ar    1  UNL1        0.0630
      4 CL        138.0555  139.4938  169.0072 Cl      1  UNL1       -0.0821
      5 C         140.0539  139.9995  167.4258 C.ar    1  UNL1        0.0564
      6 C         139.6064  139.3618  166.1440 C.ar    1  UNL1        0.0730
      7 CL        138.3122  138.6359  165.9253 Cl      1  UNL1       -0.0810
      8 C         140.6804  139.5776  165.1193 C.ar    1  UNL1        0.0486
      9 N         141.7917  140.3486  165.7678 N.ar    1  UNL1       -0.3160
     10 C         141.4044  140.6094  167.1933 C.ar    1  UNL1        0.1453
     11 N         142.1072  141.3234  168.3097 N.ar    1  UNL1       -0.2236
     12 C         143.0663  140.7827  165.1069 C.3     1  UNL1        0.1023
     13 C         144.0811  139.7598  164.6898 C.3     1  UNL1        0.0254
     14 C         145.3557  140.1939  164.0290 C.3     1  UNL1        0.0191
     15 C         145.6156  141.6509  163.7851 C.3     1  UNL1        0.0687
     16 N         144.6009  142.6739  164.2021 N.3     1  UNL1       -0.2959
     17 C         143.3263  142.2397  164.8630 C.3     1  UNL1        0.0914
     18 H         144.3366  143.1865  163.3608 H       1  UNL1        0.1233
     19 N         143.5170  142.7429  170.5453 N.am    1  UNL1       -0.3241
     20 C         142.1621  142.1416  170.7750 C.2     1  UNL1        0.2606
     21 O         141.5100  142.2544  172.1211 O.2     1  UNL1       -0.2687
     22 H         143.9782  143.2115  171.2780 H       1  UNL1        0.1453
     23 H         143.9450  142.6689  169.6618 H       1  UNL1        0.1453
     24 C         140.6487  139.1052  163.6959 C.3     1  UNL1        0.0392
     25 C         140.7049  139.4029  162.2268 C.3     1  UNL1        0.0063
     26 C         140.5375  137.9893  162.6997 C.3     1  UNL1        0.0063
@<TRIPOS>BOND
     1    19    20   am
     2    20    21    2
     3    20     1    1
     4     1     2   ar
     5     2     3   ar
     6     3     4    1
     7     3     5   ar
     8     5     6   ar
     9     6     7    1
    10     6     8   ar
    11     8    24    1
    12    24    25    1
    13    25    26    1
    14     8     9   ar
    15    12     9    1
    16    12    13    1
    17    13    14    1
    18    14    15    1
    19    15    16    1
    20    16    17    1
    21     9    10   ar
    22    10    11   ar
    23    11     1   ar
    24    10     5   ar
    25    26    24    1
    26    17    12    1
    27    19    22    1
    28    19    23    1
    29    16    18    1
