@<TRIPOS>MOLECULE
*****
 30 33 0 0 0
SMALL
GASTEIGER

@<TRIPOS>ATOM
      1 C         139.3994  140.0944  163.5221 C.ar    1  UNL1        0.0019
      2 C         138.2948  140.0853  164.5369 C.ar    1  UNL1        0.0002
      3 C         138.6164  139.9328  165.9940 C.ar    1  UNL1        0.0042
      4 C         140.0425  139.7894  166.4363 C.ar    1  UNL1        0.0497
      5 C         141.1470  139.7985  165.4216 C.ar    1  UNL1       -0.0161
      6 C         140.8255  139.9510  163.9644 C.ar    1  UNL1       -0.0040
      7 C         142.5731  139.6551  165.8639 C.3     1  UNL1        0.0480
      8 C         142.8947  139.5026  167.3211 C.3     1  UNL1        0.0984
      9 N         141.7901  139.4935  168.3359 N.am    1  UNL1       -0.2743
     10 C         140.3640  139.6369  167.8936 C.2     1  UNL1        0.2488
     11 O         139.2595  139.6278  168.9084 O.2     1  UNL1       -0.2699
     12 C         138.4349  140.5519  159.1504 C.ar    1  UNL1        0.0558
     13 C         138.4037  141.7484  160.0545 C.ar    1  UNL1        0.0047
     14 C         138.7252  141.5959  161.5118 C.ar    1  UNL1        0.0024
     15 C         139.0779  140.2469  162.0648 C.ar    1  UNL1        0.0275
     16 C         139.1090  139.0504  161.1607 C.ar    1  UNL1        0.1402
     17 F         139.4617  137.7014  161.7139 F       1  UNL1       -0.2042
     18 C         138.7875  139.2029  159.7036 C.ar    1  UNL1        0.0341
     19 C         138.8843  141.1642  155.2552 C.3     1  UNL1        0.1152
     20 N         139.2058  141.0118  156.7125 N.am    1  UNL1       -0.2726
     21 C         140.6196  141.1668  157.1888 C.3     1  UNL1        0.1152
     22 C         138.1134  140.7043  157.6933 C.2     1  UNL1        0.2492
     23 O         136.6995  140.5493  157.2170 O.2     1  UNL1       -0.2699
     24 C         142.1117  139.3411  169.7931 C.3     1  UNL1        0.1110
     25 C         142.4203  140.5514  170.6237 C.3     1  UNL1        0.0939
     26 N         141.5522  141.7706  170.5240 N.3     1  UNL1       -0.2712
     27 C         141.8996  143.0443  169.8119 C.3     1  UNL1        0.0722
     28 C         140.7464  143.9912  169.9667 C.3     1  UNL1        0.0188
     29 C         139.6864  143.3026  170.7744 C.3     1  UNL1        0.0188
     30 C         140.1844  141.9302  171.1188 C.3     1  UNL1        0.0722
@<TRIPOS>BOND
     1    19    20    1
     2    20    21    1
     3    20    22   am
     4    22    23    2
     5    22    12    1
     6    12    13   ar
     7    13    14   ar
     8    14    15   ar
     9    15     1    1
    10     1     2   ar
    11     2     3   ar
    12     3     4   ar
    13     4     5   ar
    14     5     6   ar
    15     5     7    1
    16     7     8    1
    17     8     9    1
    18     9    24    1
    19    24    25    1
    20    25    26    1
    21    26    27    1
    22    27    28    1
    23    28    29    1
    24    29    30    1
    25     9    10   am
    26    10    11    2
    27    15    16   ar
    28    16    17    1
    29    16    18   ar
    30    18    12   ar
    31     6     1   ar
    32    30    26    1
    33    10     4    1
@<TRIPOS>MOLECULE
*****
 30 33 0 0 0
SMALL
GASTEIGER

@<TRIPOS>ATOM
      1 C         140.4902  139.3497  163.4616 C.ar    1  UNL1        0.0019
      2 C         139.2371  139.6543  162.6956 C.ar    1  UNL1        0.0002
      3 C         139.1794  139.3965  161.2190 C.ar    1  UNL1        0.0042
      4 C         140.3749  138.8342  160.5086 C.ar    1  UNL1        0.0497
      5 C         141.6280  138.5297  161.2747 C.ar    1  UNL1       -0.0161
      6 C         141.6856  138.7874  162.7512 C.ar    1  UNL1       -0.0040
      7 C         142.8234  137.9674  160.5642 C.3     1  UNL1        0.0480
      8 C         142.7658  137.7097  159.0877 C.3     1  UNL1        0.0984
      9 N         141.5126  138.0142  158.3215 N.am    1  UNL1       -0.2743
     10 C         140.3172  138.5765  159.0320 C.2     1  UNL1        0.2488
     11 O         139.0641  138.8810  158.2659 O.2     1  UNL1       -0.2699
     12 C         140.6632  140.1229  167.8914 C.ar    1  UNL1        0.0558
     13 C         141.9258  140.1148  167.0816 C.ar    1  UNL1        0.0047
     14 C         141.8681  139.8571  165.6050 C.ar    1  UNL1        0.0024
     15 C         140.5479  139.6075  164.9383 C.ar    1  UNL1        0.0275
     16 C         139.2853  139.6156  165.7481 C.ar    1  UNL1        0.1402
     17 F         137.9650  139.3660  165.0812 F       1  UNL1       -0.2042
     18 C         139.3429  139.8733  167.2246 C.ar    1  UNL1        0.0341
     19 C         140.7026  142.0435  171.3641 C.3     1  UNL1        0.1152
     20 N         140.6450  141.7857  169.8875 N.am    1  UNL1       -0.2726
     21 C         140.5114  142.9330  168.9306 C.3     1  UNL1        0.1152
     22 C         140.7209  140.3806  169.3679 C.2     1  UNL1        0.2492
     23 O         140.8544  139.2333  170.3249 O.2     1  UNL1       -0.2699
     24 C         141.4550  137.7565  156.8450 C.3     1  UNL1        0.1110
     25 C         142.5252  136.9394  156.1839 C.3     1  UNL1        0.0939
     26 N         142.4344  135.4421  156.1858 N.3     1  UNL1       -0.2712
     27 C         143.2585  134.5100  157.0237 C.3     1  UNL1        0.0722
     28 C         142.8370  133.1058  156.7059 C.3     1  UNL1        0.0188
     29 C         141.7524  133.1703  155.6717 C.3     1  UNL1        0.0188
     30 C         141.5036  134.6142  155.3503 C.3     1  UNL1        0.0722
@<TRIPOS>BOND
     1    19    20    1
     2    20    21    1
     3    20    22   am
     4    22    23    2
     5    22    12    1
     6    12    13   ar
     7    13    14   ar
     8    14    15   ar
     9    15     1    1
    10     1     2   ar
    11     2     3   ar
    12     3     4   ar
    13     4     5   ar
    14     5     6   ar
    15     5     7    1
    16     7     8    1
    17     8     9    1
    18     9    24    1
    19    24    25    1
    20    25    26    1
    21    26    27    1
    22    27    28    1
    23    28    29    1
    24    29    30    1
    25     9    10   am
    26    10    11    2
    27    15    16   ar
    28    16    17    1
    29    16    18   ar
    30    18    12   ar
    31     6     1   ar
    32    30    26    1
    33    10     4    1
@<TRIPOS>MOLECULE
*****
 30 33 0 0 0
SMALL
GASTEIGER

@<TRIPOS>ATOM
      1 C         142.4952  139.9269  163.3313 C.ar    1  UNL1        0.0019
      2 C         143.7818  139.9790  162.5620 C.ar    1  UNL1        0.0002
      3 C         143.7939  139.6526  161.0980 C.ar    1  UNL1        0.0042
      4 C         142.5195  139.2740  160.4034 C.ar    1  UNL1        0.0497
      5 C         141.2329  139.2219  161.1727 C.ar    1  UNL1       -0.0161
      6 C         141.2207  139.5484  162.6367 C.ar    1  UNL1       -0.0040
      7 C         139.9585  138.8434  160.4781 C.3     1  UNL1        0.0480
      8 C         139.9706  138.5169  159.0141 C.3     1  UNL1        0.0984
      9 N         141.2573  138.5689  158.2447 N.am    1  UNL1       -0.2743
     10 C         142.5317  138.9475  158.9393 C.2     1  UNL1        0.2488
     11 O         143.8183  138.9996  158.1700 O.2     1  UNL1       -0.2699
     12 C         142.4585  140.9063  167.7233 C.ar    1  UNL1        0.0558
     13 C         142.4280  142.0105  166.7084 C.ar    1  UNL1        0.0047
     14 C         142.4402  141.6840  165.2444 C.ar    1  UNL1        0.0024
     15 C         142.4829  140.2534  164.7953 C.ar    1  UNL1        0.0275
     16 C         142.5135  139.1493  165.8102 C.ar    1  UNL1        0.1402
     17 F         142.5562  137.7187  165.3611 F       1  UNL1       -0.2042
     18 C         142.5013  139.4757  167.2742 C.ar    1  UNL1        0.0341
     19 C         141.1352  141.5961  171.4007 C.3     1  UNL1        0.1152
     20 N         141.1474  141.2697  169.9366 N.am    1  UNL1       -0.2726
     21 C         139.8608  140.9802  169.2220 C.3     1  UNL1        0.1152
     22 C         142.4463  141.2328  169.1873 C.2     1  UNL1        0.2492
     23 O         143.7330  141.5223  169.9020 O.2     1  UNL1       -0.2699
     24 C         141.2694  138.2425  156.7808 C.3     1  UNL1        0.1110
     25 C         140.7857  136.9041  156.3067 C.3     1  UNL1        0.0939
     26 N         141.7478  135.7601  156.1815 N.3     1  UNL1       -0.2712
     27 C         141.5655  134.5450  155.3211 C.3     1  UNL1        0.0722
     28 C         142.7662  133.6642  155.5024 C.3     1  UNL1        0.0188
     29 C         143.6905  134.3352  156.4749 C.3     1  UNL1        0.0188
     30 C         143.0611  135.6304  156.8945 C.3     1  UNL1        0.0722
@<TRIPOS>BOND
     1    19    20    1
     2    20    21    1
     3    20    22   am
     4    22    23    2
     5    22    12    1
     6    12    13   ar
     7    13    14   ar
     8    14    15   ar
     9    15     1    1
    10     1     2   ar
    11     2     3   ar
    12     3     4   ar
    13     4     5   ar
    14     5     6   ar
    15     5     7    1
    16     7     8    1
    17     8     9    1
    18     9    24    1
    19    24    25    1
    20    25    26    1
    21    26    27    1
    22    27    28    1
    23    28    29    1
    24    29    30    1
    25     9    10   am
    26    10    11    2
    27    15    16   ar
    28    16    17    1
    29    16    18   ar
    30    18    12   ar
    31     6     1   ar
    32    30    26    1
    33    10     4    1
@<TRIPOS>MOLECULE
*****
 30 33 0 0 0
SMALL
GASTEIGER

@<TRIPOS>ATOM
      1 C         139.4416  140.1990  163.5798 C.ar    1  UNL1        0.0019
      2 C         138.1826  140.6186  162.8807 C.ar    1  UNL1        0.0002
      3 C         138.0324  140.3911  161.4057 C.ar    1  UNL1        0.0042
      4 C         139.1411  139.7440  160.6298 C.ar    1  UNL1        0.0497
      5 C         140.4001  139.3244  161.3290 C.ar    1  UNL1       -0.0161
      6 C         140.5503  139.5519  162.8040 C.ar    1  UNL1       -0.0040
      7 C         141.5089  138.6774  160.5532 C.3     1  UNL1        0.0480
      8 C         141.3587  138.4498  159.0782 C.3     1  UNL1        0.0984
      9 N         140.0997  138.8694  158.3790 N.am    1  UNL1       -0.2743
     10 C         138.9909  139.5165  159.1548 C.2     1  UNL1        0.2488
     11 O         137.7319  139.9361  158.4556 O.2     1  UNL1       -0.2699
     12 C         139.8923  140.8815  168.0049 C.ar    1  UNL1        0.0558
     13 C         140.3215  141.9421  167.0350 C.ar    1  UNL1        0.0047
     14 C         140.1712  141.7146  165.5599 C.ar    1  UNL1        0.0024
     15 C         139.5918  140.4265  165.0549 C.ar    1  UNL1        0.0275
     16 C         139.1626  139.3659  166.0249 C.ar    1  UNL1        0.1402
     17 F         138.5832  138.0778  165.5198 F       1  UNL1       -0.2042
     18 C         139.3129  139.5933  167.4999 C.ar    1  UNL1        0.0341
     19 C         141.5457  141.2368  171.5952 C.3     1  UNL1        0.1152
     20 N         141.3954  141.0094  170.1201 N.am    1  UNL1       -0.2726
     21 C         142.5980  140.6824  169.2854 C.3     1  UNL1        0.1152
     22 C         140.0426  141.1089  169.4799 C.2     1  UNL1        0.2492
     23 O         138.8400  141.4359  170.3147 O.2     1  UNL1       -0.2699
     24 C         139.9494  138.6419  156.9040 C.3     1  UNL1        0.1110
     25 C         140.2071  137.2825  156.3247 C.3     1  UNL1        0.0939
     26 N         141.6140  136.8337  156.0616 N.3     1  UNL1       -0.2712
     27 C         142.1267  135.4284  156.1738 C.3     1  UNL1        0.0722
     28 C         143.5848  135.4375  155.8217 C.3     1  UNL1        0.0188
     29 C         143.9732  136.8484  155.4920 C.3     1  UNL1        0.0188
     30 C         142.7552  137.7112  155.6403 C.3     1  UNL1        0.0722
@<TRIPOS>BOND
     1    19    20    1
     2    20    21    1
     3    20    22   am
     4    22    23    2
     5    22    12    1
     6    12    13   ar
     7    13    14   ar
     8    14    15   ar
     9    15     1    1
    10     1     2   ar
    11     2     3   ar
    12     3     4   ar
    13     4     5   ar
    14     5     6   ar
    15     5     7    1
    16     7     8    1
    17     8     9    1
    18     9    24    1
    19    24    25    1
    20    25    26    1
    21    26    27    1
    22    27    28    1
    23    28    29    1
    24    29    30    1
    25     9    10   am
    26    10    11    2
    27    15    16   ar
    28    16    17    1
    29    16    18   ar
    30    18    12   ar
    31     6     1   ar
    32    30    26    1
    33    10     4    1
@<TRIPOS>MOLECULE
*****
 30 33 0 0 0
SMALL
GASTEIGER

@<TRIPOS>ATOM
      1 C         142.1136  143.0826  163.4789 C.ar    1  UNL1        0.0019
      2 C         143.0468  142.1938  162.7114 C.ar    1  UNL1        0.0002
      3 C         143.2013  142.3697  161.2298 C.ar    1  UNL1        0.0042
      4 C         142.4224  143.4344  160.5158 C.ar    1  UNL1        0.0497
      5 C         141.4892  144.3232  161.2833 C.ar    1  UNL1       -0.0161
      6 C         141.3348  144.1472  162.7649 C.ar    1  UNL1       -0.0040
      7 C         140.7103  145.3878  160.5692 C.3     1  UNL1        0.0480
      8 C         140.8648  145.5637  159.0876 C.3     1  UNL1        0.0984
      9 N         141.7981  144.6750  158.3200 N.am    1  UNL1       -0.2743
     10 C         142.5769  143.6103  159.0341 C.2     1  UNL1        0.2488
     11 O         143.5101  142.7216  158.2666 O.2     1  UNL1       -0.2699
     12 C         141.6503  142.5549  167.9239 C.ar    1  UNL1        0.0558
     13 C         140.4464  142.8268  167.0714 C.ar    1  UNL1        0.0047
     14 C         140.6009  143.0027  165.5897 C.ar    1  UNL1        0.0024
     15 C         141.9591  142.9067  164.9606 C.ar    1  UNL1        0.0275
     16 C         143.1630  142.6348  165.8131 C.ar    1  UNL1        0.1402
     17 F         144.5213  142.5387  165.1839 F       1  UNL1       -0.2042
     18 C         143.0086  142.4589  167.2947 C.ar    1  UNL1        0.0341
     19 C         141.0481  140.8460  171.4547 C.3     1  UNL1        0.1152
     20 N         141.2025  141.0219  169.9730 N.am    1  UNL1       -0.2726
     21 C         141.0635  139.8407  169.0590 C.3     1  UNL1        0.1152
     22 C         141.4959  142.3790  169.4055 C.2     1  UNL1        0.2492
     23 O         141.6349  143.5602  170.3195 O.2     1  UNL1       -0.2699
     24 C         141.9525  144.8509  156.8384 C.3     1  UNL1        0.1110
     25 C         140.7382  144.9125  155.9599 C.3     1  UNL1        0.0939
     26 N         140.2155  146.2394  155.4948 N.3     1  UNL1       -0.2712
     27 C         139.1901  147.0785  156.1979 C.3     1  UNL1        0.0722
     28 C         138.9673  148.3178  155.3826 C.3     1  UNL1        0.0188
     29 C         139.8551  148.2446  154.1758 C.3     1  UNL1        0.0188
     30 C         140.6266  146.9601  154.2451 C.3     1  UNL1        0.0722
@<TRIPOS>BOND
     1    19    20    1
     2    20    21    1
     3    20    22   am
     4    22    23    2
     5    22    12    1
     6    12    13   ar
     7    13    14   ar
     8    14    15   ar
     9    15     1    1
    10     1     2   ar
    11     2     3   ar
    12     3     4   ar
    13     4     5   ar
    14     5     6   ar
    15     5     7    1
    16     7     8    1
    17     8     9    1
    18     9    24    1
    19    24    25    1
    20    25    26    1
    21    26    27    1
    22    27    28    1
    23    28    29    1
    24    29    30    1
    25     9    10   am
    26    10    11    2
    27    15    16   ar
    28    16    17    1
    29    16    18   ar
    30    18    12   ar
    31     6     1   ar
    32    30    26    1
    33    10     4    1
@<TRIPOS>MOLECULE
*****
 30 33 0 0 0
SMALL
GASTEIGER

@<TRIPOS>ATOM
      1 C         140.2882  138.6019  162.3670 C.ar    1  UNL1        0.0019
      2 C         139.2364  137.7027  162.9459 C.ar    1  UNL1        0.0002
      3 C         138.8162  137.8641  164.3767 C.ar    1  UNL1        0.0042
      4 C         139.4479  138.9248  165.2287 C.ar    1  UNL1        0.0497
      5 C         140.4997  139.8240  164.6499 C.ar    1  UNL1       -0.0161
      6 C         140.9199  139.6625  163.2191 C.ar    1  UNL1       -0.0040
      7 C         141.1314  140.8847  165.5019 C.3     1  UNL1        0.0480
      8 C         140.7113  141.0462  166.9328 C.3     1  UNL1        0.0984
      9 N         139.6594  140.1469  167.5117 N.am    1  UNL1       -0.2743
     10 C         139.0277  139.0863  166.6596 C.2     1  UNL1        0.2488
     11 O         137.9759  138.1871  167.2385 O.2     1  UNL1       -0.2699
     12 C         141.5487  138.1175  158.0743 C.ar    1  UNL1        0.0558
     13 C         142.5413  137.8964  159.1770 C.ar    1  UNL1        0.0047
     14 C         142.1211  138.0578  160.6079 C.ar    1  UNL1        0.0024
     15 C         140.7084  138.4404  160.9361 C.ar    1  UNL1        0.0275
     16 C         139.7158  138.6616  159.8335 C.ar    1  UNL1        0.1402
     17 F         138.3030  139.0442  160.1618 F       1  UNL1       -0.2042
     18 C         140.1359  138.5002  158.4026 C.ar    1  UNL1        0.0341
     19 C         142.9442  138.9657  154.4573 C.3     1  UNL1        0.1152
     20 N         142.5241  139.1271  155.8882 N.am    1  UNL1       -0.2726
     21 C         142.6592  140.4595  156.5638 C.3     1  UNL1        0.1152
     22 C         141.9688  137.9561  156.6435 C.2     1  UNL1        0.2492
     23 O         141.8337  136.6237  155.9679 O.2     1  UNL1       -0.2699
     24 C         139.2393  140.3084  168.9425 C.3     1  UNL1        0.1110
     25 C         140.2511  140.1712  170.0413 C.3     1  UNL1        0.0939
     26 N         141.4290  141.0984  170.0963 N.3     1  UNL1       -0.2712
     27 C         141.3866  142.5583  170.4382 C.3     1  UNL1        0.0722
     28 C         142.7875  143.0906  170.3722 C.3     1  UNL1        0.0188
     29 C         143.6956  141.9597  169.9894 C.3     1  UNL1        0.0188
     30 C         142.8559  140.7285  169.8189 C.3     1  UNL1        0.0722
@<TRIPOS>BOND
     1    19    20    1
     2    20    21    1
     3    20    22   am
     4    22    23    2
     5    22    12    1
     6    12    13   ar
     7    13    14   ar
     8    14    15   ar
     9    15     1    1
    10     1     2   ar
    11     2     3   ar
    12     3     4   ar
    13     4     5   ar
    14     5     6   ar
    15     5     7    1
    16     7     8    1
    17     8     9    1
    18     9    24    1
    19    24    25    1
    20    25    26    1
    21    26    27    1
    22    27    28    1
    23    28    29    1
    24    29    30    1
    25     9    10   am
    26    10    11    2
    27    15    16   ar
    28    16    17    1
    29    16    18   ar
    30    18    12   ar
    31     6     1   ar
    32    30    26    1
    33    10     4    1
@<TRIPOS>MOLECULE
*****
 30 33 0 0 0
SMALL
GASTEIGER

@<TRIPOS>ATOM
      1 C         140.6398  142.6289  163.1310 C.ar    1  UNL1        0.0019
      2 C         139.7034  141.6305  162.5175 C.ar    1  UNL1        0.0002
      3 C         139.2620  141.7931  161.0932 C.ar    1  UNL1        0.0042
      4 C         139.7569  142.9540  160.2824 C.ar    1  UNL1        0.0497
      5 C         140.6932  143.9524  160.8960 C.ar    1  UNL1       -0.0161
      6 C         141.1347  143.7898  162.3203 C.ar    1  UNL1       -0.0040
      7 C         141.1881  145.1133  160.0852 C.3     1  UNL1        0.0480
      8 C         140.7467  145.2759  158.6609 C.3     1  UNL1        0.0984
      9 N         139.8103  144.2775  158.0473 N.am    1  UNL1       -0.2743
     10 C         139.3154  143.1165  158.8581 C.2     1  UNL1        0.2488
     11 O         138.3791  142.1182  158.2445 O.2     1  UNL1       -0.2699
     12 C         141.9642  142.1414  167.4041 C.ar    1  UNL1        0.0558
     13 C         142.8253  141.6272  166.2887 C.ar    1  UNL1        0.0047
     14 C         142.3838  141.7897  164.8643 C.ar    1  UNL1        0.0024
     15 C         141.0813  142.4664  164.5554 C.ar    1  UNL1        0.0275
     16 C         140.2202  142.9806  165.6708 C.ar    1  UNL1        0.1402
     17 F         138.9176  143.6573  165.3618 F       1  UNL1       -0.2042
     18 C         140.6616  142.8181  167.0951 C.ar    1  UNL1        0.0341
     19 C         142.2783  140.7114  171.0928 C.3     1  UNL1        0.1152
     20 N         141.8369  140.8739  169.6684 N.am    1  UNL1       -0.2726
     21 C         140.8268  139.9315  169.0841 C.3     1  UNL1        0.1152
     22 C         142.4056  141.9789  168.8284 C.2     1  UNL1        0.2492
     23 O         143.4158  142.9213  169.4127 O.2     1  UNL1       -0.2699
     24 C         139.3689  144.4400  156.6230 C.3     1  UNL1        0.1110
     25 C         140.2322  145.1882  155.6510 C.3     1  UNL1        0.0939
     26 N         139.9028  146.6071  155.2931 N.3     1  UNL1       -0.2712
     27 C         140.4483  147.3706  154.1228 C.3     1  UNL1        0.0722
     28 C         139.8526  148.7471  154.1491 C.3     1  UNL1        0.0188
     29 C         138.9390  148.8342  155.3356 C.3     1  UNL1        0.0188
     30 C         138.9700  147.5117  156.0426 C.3     1  UNL1        0.0722
@<TRIPOS>BOND
     1    19    20    1
     2    20    21    1
     3    20    22   am
     4    22    23    2
     5    22    12    1
     6    12    13   ar
     7    13    14   ar
     8    14    15   ar
     9    15     1    1
    10     1     2   ar
    11     2     3   ar
    12     3     4   ar
    13     4     5   ar
    14     5     6   ar
    15     5     7    1
    16     7     8    1
    17     8     9    1
    18     9    24    1
    19    24    25    1
    20    25    26    1
    21    26    27    1
    22    27    28    1
    23    28    29    1
    24    29    30    1
    25     9    10   am
    26    10    11    2
    27    15    16   ar
    28    16    17    1
    29    16    18   ar
    30    18    12   ar
    31     6     1   ar
    32    30    26    1
    33    10     4    1
@<TRIPOS>MOLECULE
*****
 30 33 0 0 0
SMALL
GASTEIGER

@<TRIPOS>ATOM
      1 C         139.2896  140.6501  163.5224 C.ar    1  UNL1        0.0019
      2 C         137.8995  140.5342  162.9710 C.ar    1  UNL1        0.0002
      3 C         137.6874  140.4149  161.4909 C.ar    1  UNL1        0.0042
      4 C         138.8654  140.4116  160.5622 C.ar    1  UNL1        0.0497
      5 C         140.2555  140.5276  161.1137 C.ar    1  UNL1       -0.0161
      6 C         140.4676  140.6468  162.5938 C.ar    1  UNL1       -0.0040
      7 C         141.4335  140.5243  160.1851 C.3     1  UNL1        0.0480
      8 C         141.2214  140.4051  158.7050 C.3     1  UNL1        0.0984
      9 N         139.8313  140.2891  158.1534 N.am    1  UNL1       -0.2743
     10 C         138.6533  140.2924  159.0821 C.2     1  UNL1        0.2488
     11 O         137.2632  140.1765  158.5306 O.2     1  UNL1       -0.2699
     12 C         139.9260  141.0078  167.9629 C.ar    1  UNL1        0.0558
     13 C         140.2702  142.1559  167.0610 C.ar    1  UNL1        0.0047
     14 C         140.0581  142.0366  165.5809 C.ar    1  UNL1        0.0024
     15 C         139.5017  140.7693  165.0026 C.ar    1  UNL1        0.0275
     16 C         139.1575  139.6212  165.9045 C.ar    1  UNL1        0.1402
     17 F         138.6011  138.3539  165.3262 F       1  UNL1       -0.2042
     18 C         139.3696  139.7404  167.3846 C.ar    1  UNL1        0.0341
     19 C         141.7187  141.0444  171.5033 C.3     1  UNL1        0.1152
     20 N         141.5066  140.9252  170.0232 N.am    1  UNL1       -0.2726
     21 C         142.6629  140.6043  169.1232 C.3     1  UNL1        0.1152
     22 C         140.1381  141.1270  169.4430 C.2     1  UNL1        0.2492
     23 O         138.9818  141.4479  170.3430 O.2     1  UNL1       -0.2699
     24 C         139.6192  140.1699  156.6733 C.3     1  UNL1        0.1110
     25 C         139.3454  138.8284  156.0606 C.3     1  UNL1        0.0939
     26 N         138.1832  138.6528  155.1286 N.3     1  UNL1       -0.2712
     27 C         137.0808  139.6435  154.8975 C.3     1  UNL1        0.0722
     28 C         136.1356  139.0586  153.8902 C.3     1  UNL1        0.0188
     29 C         136.6539  137.7064  153.4987 C.3     1  UNL1        0.0188
     30 C         137.9194  137.4557  154.2641 C.3     1  UNL1        0.0722
@<TRIPOS>BOND
     1    19    20    1
     2    20    21    1
     3    20    22   am
     4    22    23    2
     5    22    12    1
     6    12    13   ar
     7    13    14   ar
     8    14    15   ar
     9    15     1    1
    10     1     2   ar
    11     2     3   ar
    12     3     4   ar
    13     4     5   ar
    14     5     6   ar
    15     5     7    1
    16     7     8    1
    17     8     9    1
    18     9    24    1
    19    24    25    1
    20    25    26    1
    21    26    27    1
    22    27    28    1
    23    28    29    1
    24    29    30    1
    25     9    10   am
    26    10    11    2
    27    15    16   ar
    28    16    17    1
    29    16    18   ar
    30    18    12   ar
    31     6     1   ar
    32    30    26    1
    33    10     4    1
@<TRIPOS>MOLECULE
*****
 30 33 0 0 0
SMALL
GASTEIGER

@<TRIPOS>ATOM
      1 C         139.9983  139.8816  163.3571 C.ar    1  UNL1        0.0019
      2 C         140.2454  138.5803  162.6532 C.ar    1  UNL1        0.0002
      3 C         139.9473  138.4514  161.1888 C.ar    1  UNL1        0.0042
      4 C         139.4022  139.6238  160.4283 C.ar    1  UNL1        0.0497
      5 C         139.1551  140.9251  161.1322 C.ar    1  UNL1       -0.0161
      6 C         139.4532  141.0540  162.5966 C.ar    1  UNL1       -0.0040
      7 C         138.6100  142.0975  160.3717 C.3     1  UNL1        0.0480
      8 C         138.3120  141.9686  158.9073 C.3     1  UNL1        0.0984
      9 N         138.5591  140.6672  158.2033 N.am    1  UNL1       -0.2743
     10 C         139.1042  139.4948  158.9638 C.2     1  UNL1        0.2488
     11 O         139.3512  138.1935  158.2599 O.2     1  UNL1       -0.2699
     12 C         140.8923  140.2684  167.7505 C.ar    1  UNL1        0.0558
     13 C         142.0146  140.2515  166.7554 C.ar    1  UNL1        0.0047
     14 C         141.7166  140.1225  165.2909 C.ar    1  UNL1        0.0024
     15 C         140.2963  140.0105  164.8216 C.ar    1  UNL1        0.0275
     16 C         139.1740  140.0275  165.8167 C.ar    1  UNL1        0.1402
     17 F         137.7537  139.9155  165.3473 F       1  UNL1       -0.2042
     18 C         139.4720  140.1564  167.2811 C.ar    1  UNL1        0.0341
     19 C         141.3380  141.8539  171.3612 C.3     1  UNL1        0.1152
     20 N         141.0400  141.7249  169.8967 N.am    1  UNL1       -0.2726
     21 C         140.5917  142.9235  169.1142 C.3     1  UNL1        0.1152
     22 C         141.1903  140.3974  169.2149 C.2     1  UNL1        0.2492
     23 O         141.6386  139.1988  169.9974 O.2     1  UNL1       -0.2699
     24 C         138.2610  140.5383  156.7389 C.3     1  UNL1        0.1110
     25 C         137.3943  141.5554  156.0576 C.3     1  UNL1        0.0939
     26 N         135.9593  141.2378  155.7577 N.3     1  UNL1       -0.2712
     27 C         135.0611  140.3591  156.5769 C.3     1  UNL1        0.0722
     28 C         133.7172  140.3213  155.9116 C.3     1  UNL1        0.0188
     29 C         133.7849  141.1767  154.6812 C.3     1  UNL1        0.0188
     30 C         135.1706  141.7431  154.5861 C.3     1  UNL1        0.0722
@<TRIPOS>BOND
     1    19    20    1
     2    20    21    1
     3    20    22   am
     4    22    23    2
     5    22    12    1
     6    12    13   ar
     7    13    14   ar
     8    14    15   ar
     9    15     1    1
    10     1     2   ar
    11     2     3   ar
    12     3     4   ar
    13     4     5   ar
    14     5     6   ar
    15     5     7    1
    16     7     8    1
    17     8     9    1
    18     9    24    1
    19    24    25    1
    20    25    26    1
    21    26    27    1
    22    27    28    1
    23    28    29    1
    24    29    30    1
    25     9    10   am
    26    10    11    2
    27    15    16   ar
    28    16    17    1
    29    16    18   ar
    30    18    12   ar
    31     6     1   ar
    32    30    26    1
    33    10     4    1
