@<TRIPOS>MOLECULE
*****
 34 39 0 0 0
SMALL
GASTEIGER

@<TRIPOS>ATOM
      1 C         141.3239  142.7440  164.2807 C.ar    1  UNL1        0.0903
      2 C         140.2318  142.8160  165.3064 C.ar    1  UNL1        0.1460
      3 O         139.2437  143.8522  164.8594 O.2     1  UNL1       -0.4537
      4 C         139.7251  144.4207  163.5574 C.ar    1  UNL1        0.1454
      5 C         139.1589  145.4734  162.6514 C.ar    1  UNL1        0.0406
      6 C         139.8783  145.8413  161.3876 C.ar    1  UNL1        0.0395
      7 C         141.1640  145.1564  161.0300 C.ar    1  UNL1        0.1311
      8 O         141.8834  145.5243  159.7661 O.3     1  UNL1       -0.5058
      9 C         141.7302  144.1036  161.9360 C.ar    1  UNL1        0.0308
     10 C         141.0108  143.7357  163.1997 C.ar    1  UNL1        0.0421
     11 H         141.5297  146.1819  159.2002 H       1  UNL1        0.2922
     12 C         140.1434  141.9957  166.5591 C.2     1  UNL1        0.0170
     13 C         139.4813  140.6501  166.5294 C.2     1  UNL1        0.0006
     14 C         139.3929  139.8299  167.7821 C.2     1  UNL1        0.0186
     15 C         139.9665  140.3553  169.0647 C.2     1  UNL1        0.0777
     16 N         140.0283  139.7776  170.4476 N.2     1  UNL1       -0.2442
     17 C         140.7286  140.7662  171.3320 C.2     1  UNL1        0.0985
     18 C         141.0995  141.9549  170.4958 C.2     1  UNL1        0.0182
     19 C         140.6285  141.7009  169.0944 C.2     1  UNL1        0.0015
     20 C         140.7170  142.5211  167.8417 C.3     1  UNL1        0.0573
     21 C         143.6055  139.5211  163.8831 C.3     1  UNL1        0.1109
     22 N         142.4101  140.4260  163.8362 N.am    1  UNL1       -0.2991
     23 C         142.5193  141.8391  164.3276 C.2     1  UNL1        0.2489
     24 O         143.8239  142.3472  164.8658 O.2     1  UNL1       -0.2700
     25 H         141.5539  140.0925  163.4829 H       1  UNL1        0.1498
     26 C         143.0159  143.4186  161.5783 C.3     1  UNL1        0.1023
     27 N         142.9904  142.0604  160.9424 N.3     1  UNL1       -0.2687
     28 C         144.1799  141.1812  160.6927 C.3     1  UNL1        0.0726
     29 C         143.6957  139.9202  160.0406 C.3     1  UNL1        0.0235
     30 C         142.2068  140.0200  159.8871 C.3     1  UNL1        0.0707
     31 C         140.7324  139.9061  159.6361 C.3     1  UNL1        0.1458
     32 O         140.9401  138.5488  159.0320 O.3     1  UNL1       -0.3535
     33 C         142.4146  138.6629  159.2831 C.3     1  UNL1        0.1458
     34 C         141.7710  141.3427  160.4445 C.3     1  UNL1        0.0772
@<TRIPOS>BOND
     1    21    22    1
     2    22    23   am
     3    23    24    2
     4    23     1    1
     5     1     2   ar
     6     2    12    1
     7    12    13    2
     8    13    14    1
     9    14    15    2
    10    15    16    1
    11    16    17    2
    12    17    18    1
    13    18    19    2
    14    19    20    1
    15     2     3   ar
    16     3     4   ar
    17     4     5   ar
    18     5     6   ar
    19     6     7   ar
    20     7     8    1
    21     7     9   ar
    22     9    26    1
    23    26    27    1
    24    27    28    1
    25    28    29    1
    26    29    30    1
    27    30    31    1
    28    31    32    1
    29    32    33    1
    30    30    34    1
    31     9    10   ar
    32    10     1   ar
    33    20    12    1
    34    10     4   ar
    35    19    15    1
    36    34    27    1
    37    33    30    1
    38    22    25    1
    39     8    11    1
@<TRIPOS>MOLECULE
*****
 34 39 0 0 0
SMALL
GASTEIGER

@<TRIPOS>ATOM
      1 C         141.3901  142.7645  164.2725 C.ar    1  UNL1        0.0903
      2 C         140.2574  142.7888  165.2555 C.ar    1  UNL1        0.1460
      3 O         139.2304  143.7609  164.7553 O.2     1  UNL1       -0.4537
      4 C         139.7283  144.3374  163.4631 C.ar    1  UNL1        0.1454
      5 C         139.1387  145.3434  162.5196 C.ar    1  UNL1        0.0406
      6 C         139.8840  145.7337  161.2777 C.ar    1  UNL1        0.0395
      7 C         141.2188  145.1178  160.9793 C.ar    1  UNL1        0.1311
      8 O         141.9640  145.5081  159.7374 O.3     1  UNL1       -0.5058
      9 C         141.8083  144.1117  161.9228 C.ar    1  UNL1        0.0308
     10 C         141.0631  143.7215  163.1647 C.ar    1  UNL1        0.0421
     11 H         141.5957  146.1366  159.1480 H       1  UNL1        0.2922
     12 C         140.1675  141.9826  166.5173 C.2     1  UNL1        0.0170
     13 C         139.4870  140.6460  166.5064 C.2     1  UNL1        0.0006
     14 C         139.3971  139.8398  167.7681 C.2     1  UNL1        0.0186
     15 C         139.9878  140.3703  169.0408 C.2     1  UNL1        0.0777
     16 N         140.0525  139.8059  170.4290 N.2     1  UNL1       -0.2442
     17 C         140.7731  140.7937  171.2979 C.2     1  UNL1        0.0985
     18 C         141.1537  141.9687  170.4467 C.2     1  UNL1        0.0182
     19 C         140.6683  141.7069  169.0517 C.2     1  UNL1        0.0015
     20 C         140.7582  142.5131  167.7899 C.3     1  UNL1        0.0573
     21 C         143.9082  139.7221  163.8808 C.3     1  UNL1        0.1109
     22 N         142.6665  140.5569  163.7748 N.am    1  UNL1       -0.2991
     23 C         142.6318  141.9297  164.3785 C.2     1  UNL1        0.2489
     24 O         143.8388  142.4674  165.0883 O.2     1  UNL1       -0.2700
     25 H         141.8743  140.2039  163.3089 H       1  UNL1        0.1498
     26 C         143.1431  143.4959  161.6244 C.3     1  UNL1        0.1023
     27 N         143.2896  142.5436  160.4748 N.3     1  UNL1       -0.2687
     28 C         142.4524  141.3235  160.2284 C.3     1  UNL1        0.0726
     29 C         142.9443  140.6699  158.9711 C.3     1  UNL1        0.0235
     30 C         144.0855  141.4860  158.4403 C.3     1  UNL1        0.0707
     31 C         145.2356  142.1431  157.7364 C.3     1  UNL1        0.1458
     32 O         145.2017  141.0748  156.6839 O.3     1  UNL1       -0.3535
     33 C         144.0516  140.4178  157.3880 C.3     1  UNL1        0.1458
     34 C         144.2989  142.6440  159.3697 C.3     1  UNL1        0.0772
@<TRIPOS>BOND
     1    21    22    1
     2    22    23   am
     3    23    24    2
     4    23     1    1
     5     1     2   ar
     6     2    12    1
     7    12    13    2
     8    13    14    1
     9    14    15    2
    10    15    16    1
    11    16    17    2
    12    17    18    1
    13    18    19    2
    14    19    20    1
    15     2     3   ar
    16     3     4   ar
    17     4     5   ar
    18     5     6   ar
    19     6     7   ar
    20     7     8    1
    21     7     9   ar
    22     9    26    1
    23    26    27    1
    24    27    28    1
    25    28    29    1
    26    29    30    1
    27    30    31    1
    28    31    32    1
    29    32    33    1
    30    30    34    1
    31     9    10   ar
    32    10     1   ar
    33    20    12    1
    34    10     4   ar
    35    19    15    1
    36    34    27    1
    37    33    30    1
    38    22    25    1
    39     8    11    1
@<TRIPOS>MOLECULE
*****
 34 39 0 0 0
SMALL
GASTEIGER

@<TRIPOS>ATOM
      1 C         139.1372  141.0041  164.5763 C.ar    1  UNL1        0.0903
      2 C         139.6857  140.1070  165.6460 C.ar    1  UNL1        0.1460
      3 O         139.6138  138.6940  165.1478 O.2     1  UNL1       -0.4537
      4 C         139.0210  138.7178  163.7701 C.ar    1  UNL1        0.1454
      5 C         138.7113  137.6239  162.7917 C.ar    1  UNL1        0.0406
      6 C         138.1071  137.9577  161.4600 C.ar    1  UNL1        0.0395
      7 C         137.8125  139.3855  161.1068 C.ar    1  UNL1        0.1311
      8 O         137.2082  139.7193  159.7750 O.3     1  UNL1       -0.5058
      9 C         138.1222  140.4794  162.0852 C.ar    1  UNL1        0.0308
     10 C         138.7264  140.1455  163.4169 C.ar    1  UNL1        0.0421
     11 H         137.0148  139.0359  159.1638 H       1  UNL1        0.2922
     12 C         140.2134  140.5458  166.9798 C.2     1  UNL1        0.0170
     13 C         139.4313  140.2588  168.2271 C.2     1  UNL1        0.0006
     14 C         139.9590  140.6976  169.5609 C.2     1  UNL1        0.0186
     15 C         141.2687  141.4235  169.6474 C.2     1  UNL1        0.0777
     16 N         142.0360  141.9744  170.8126 N.2     1  UNL1       -0.2442
     17 C         143.2923  142.6019  170.2855 C.2     1  UNL1        0.0985
     18 C         143.3015  142.4389  168.7944 C.2     1  UNL1        0.0182
     19 C         142.0508  141.7106  168.4000 C.2     1  UNL1        0.0015
     20 C         141.5231  141.2718  167.0663 C.3     1  UNL1        0.0573
     21 C         140.1127  144.8504  164.5083 C.3     1  UNL1        0.1109
     22 N         140.2298  143.3569  164.4321 N.am    1  UNL1       -0.2991
     23 C         139.0202  142.4976  164.6524 C.2     1  UNL1        0.2489
     24 O         137.6936  143.1318  164.9489 O.2     1  UNL1       -0.2700
     25 H         141.1005  142.9407  164.2376 H       1  UNL1        0.1498
     26 C         137.8276  141.9071  161.7320 C.3     1  UNL1        0.1023
     27 N         138.6618  142.6130  160.7045 N.3     1  UNL1       -0.2687
     28 C         138.4792  142.5379  159.2174 C.3     1  UNL1        0.0726
     29 C         139.5296  143.3964  158.5774 C.3     1  UNL1        0.0235
     30 C         140.3616  144.0020  159.6689 C.3     1  UNL1        0.0707
     31 C         141.3136  144.7106  160.5861 C.3     1  UNL1        0.1458
     32 O         142.0075  145.3130  159.4005 O.3     1  UNL1       -0.3535
     33 C         141.0553  144.6044  158.4833 C.3     1  UNL1        0.1458
     34 C         139.8252  143.5178  160.9834 C.3     1  UNL1        0.0772
@<TRIPOS>BOND
     1    21    22    1
     2    22    23   am
     3    23    24    2
     4    23     1    1
     5     1     2   ar
     6     2    12    1
     7    12    13    2
     8    13    14    1
     9    14    15    2
    10    15    16    1
    11    16    17    2
    12    17    18    1
    13    18    19    2
    14    19    20    1
    15     2     3   ar
    16     3     4   ar
    17     4     5   ar
    18     5     6   ar
    19     6     7   ar
    20     7     8    1
    21     7     9   ar
    22     9    26    1
    23    26    27    1
    24    27    28    1
    25    28    29    1
    26    29    30    1
    27    30    31    1
    28    31    32    1
    29    32    33    1
    30    30    34    1
    31     9    10   ar
    32    10     1   ar
    33    20    12    1
    34    10     4   ar
    35    19    15    1
    36    34    27    1
    37    33    30    1
    38    22    25    1
    39     8    11    1
@<TRIPOS>MOLECULE
*****
 34 39 0 0 0
SMALL
GASTEIGER

@<TRIPOS>ATOM
      1 C         140.8147  141.3650  163.7910 C.ar    1  UNL1        0.0903
      2 C         141.4921  140.9662  165.0685 C.ar    1  UNL1        0.1460
      3 O         142.8506  140.4307  164.7252 O.2     1  UNL1       -0.4537
      4 C         143.0127  140.4986  163.2355 C.ar    1  UNL1        0.1454
      5 C         144.1436  140.1092  162.3303 C.ar    1  UNL1        0.0406
      6 C         144.0162  140.2973  160.8476 C.ar    1  UNL1        0.0395
      7 C         142.7579  140.8747  160.2702 C.ar    1  UNL1        0.1311
      8 O         142.6305  141.0627  158.7874 O.3     1  UNL1       -0.5058
      9 C         141.6271  141.2640  161.1755 C.ar    1  UNL1        0.0308
     10 C         141.7545  141.0760  162.6581 C.ar    1  UNL1        0.0421
     11 H         143.3369  140.8195  158.2219 H       1  UNL1        0.2922
     12 C         140.9128  141.0824  166.4472 C.2     1  UNL1        0.0170
     13 C         140.1670  139.9275  167.0472 C.2     1  UNL1        0.0006
     14 C         139.5877  140.0437  168.4259 C.2     1  UNL1        0.0186
     15 C         139.7541  141.3149  169.2047 C.2     1  UNL1        0.0777
     16 N         139.2969  141.7198  170.5747 N.2     1  UNL1       -0.2442
     17 C         139.7601  143.1250  170.8214 C.2     1  UNL1        0.0985
     18 C         140.5036  143.5885  169.6039 C.2     1  UNL1        0.0182
     19 C         140.4998  142.4698  168.6047 C.2     1  UNL1        0.0015
     20 C         141.0792  142.3535  167.2259 C.3     1  UNL1        0.0573
     21 C         137.8891  144.0181  163.4006 C.3     1  UNL1        0.1109
     22 N         139.2648  143.4330  163.5237 N.am    1  UNL1       -0.2991
     23 C         139.4390  141.9500  163.6679 C.2     1  UNL1        0.2489
     24 O         138.2375  141.0524  163.6889 O.2     1  UNL1       -0.2700
     25 H         140.0534  144.0222  163.5099 H       1  UNL1        0.1498
     26 C         140.3688  141.8415  160.5981 C.3     1  UNL1        0.1023
     27 N         140.4220  143.1148  159.8070 N.3     1  UNL1       -0.2687
     28 C         141.0196  144.4125  160.2642 C.3     1  UNL1        0.0726
     29 C         140.8540  145.4137  159.1596 C.3     1  UNL1        0.0235
     30 C         140.1540  144.7349  158.0197 C.3     1  UNL1        0.0707
     31 C         139.4711  144.2635  156.7702 C.3     1  UNL1        0.1458
     32 O         139.6332  145.6274  156.1671 O.3     1  UNL1       -0.3535
     33 C         140.3161  146.0987  157.4167 C.3     1  UNL1        0.1458
     34 C         139.8871  143.3140  158.4199 C.3     1  UNL1        0.0772
@<TRIPOS>BOND
     1    21    22    1
     2    22    23   am
     3    23    24    2
     4    23     1    1
     5     1     2   ar
     6     2    12    1
     7    12    13    2
     8    13    14    1
     9    14    15    2
    10    15    16    1
    11    16    17    2
    12    17    18    1
    13    18    19    2
    14    19    20    1
    15     2     3   ar
    16     3     4   ar
    17     4     5   ar
    18     5     6   ar
    19     6     7   ar
    20     7     8    1
    21     7     9   ar
    22     9    26    1
    23    26    27    1
    24    27    28    1
    25    28    29    1
    26    29    30    1
    27    30    31    1
    28    31    32    1
    29    32    33    1
    30    30    34    1
    31     9    10   ar
    32    10     1   ar
    33    20    12    1
    34    10     4   ar
    35    19    15    1
    36    34    27    1
    37    33    30    1
    38    22    25    1
    39     8    11    1
@<TRIPOS>MOLECULE
*****
 34 39 0 0 0
SMALL
GASTEIGER

@<TRIPOS>ATOM
      1 C         141.4705  140.1673  164.4902 C.ar    1  UNL1        0.0903
      2 C         140.7619  139.6398  165.7025 C.ar    1  UNL1        0.1460
      3 O         139.6979  138.6889  165.2403 O.2     1  UNL1       -0.4537
      4 C         139.7489  138.6287  163.7424 C.ar    1  UNL1        0.1454
      5 C         138.9393  137.8599  162.7406 C.ar    1  UNL1        0.0406
      6 C         139.2253  138.0048  161.2753 C.ar    1  UNL1        0.0395
      7 C         140.3208  138.9185  160.8117 C.ar    1  UNL1        0.1311
      8 O         140.6067  139.0635  159.3463 O.3     1  UNL1       -0.5058
      9 C         141.1304  139.6873  161.8135 C.ar    1  UNL1        0.0308
     10 C         140.8444  139.5424  163.2788 C.ar    1  UNL1        0.0421
     11 H         140.1010  138.5832  158.7206 H       1  UNL1        0.2922
     12 C         141.0642  140.0000  167.1269 C.2     1  UNL1        0.0170
     13 C         142.2437  139.3866  167.8215 C.2     1  UNL1        0.0006
     14 C         142.5460  139.7468  169.2459 C.2     1  UNL1        0.0186
     15 C         141.6689  140.7204  169.9756 C.2     1  UNL1        0.0777
     16 N         141.7177  141.2633  171.3731 N.2     1  UNL1       -0.2442
     17 C         140.5684  142.2122  171.5422 C.2     1  UNL1        0.0985
     18 C         139.8092  142.2559  170.2492 C.2     1  UNL1        0.0182
     19 C         140.4894  141.3338  169.2810 C.2     1  UNL1        0.0015
     20 C         140.1871  140.9737  167.8567 C.3     1  UNL1        0.0573
     21 C         143.4615  143.5995  164.5696 C.3     1  UNL1        0.1109
     22 N         142.3262  142.6192  164.5704 N.am    1  UNL1       -0.2991
     23 C         142.6058  141.1476  164.4894 C.2     1  UNL1        0.2489
     24 O         144.0207  140.6566  164.4077 O.2     1  UNL1       -0.2700
     25 H         141.3975  142.9416  164.6240 H       1  UNL1        0.1498
     26 C         142.2259  140.6011  161.3499 C.3     1  UNL1        0.1023
     27 N         141.8868  141.9227  160.7268 N.3     1  UNL1       -0.2687
     28 C         142.4757  142.4794  159.4645 C.3     1  UNL1        0.0726
     29 C         141.8522  143.8205  159.2142 C.3     1  UNL1        0.0235
     30 C         140.8779  144.0928  160.3218 C.3     1  UNL1        0.0707
     31 C         139.8627  144.5683  161.3183 C.3     1  UNL1        0.1458
     32 O         139.6801  145.8312  160.5296 O.3     1  UNL1       -0.3535
     33 C         140.6954  145.3555  159.5332 C.3     1  UNL1        0.1458
     34 C         140.8993  142.9198  161.2567 C.3     1  UNL1        0.0772
@<TRIPOS>BOND
     1    21    22    1
     2    22    23   am
     3    23    24    2
     4    23     1    1
     5     1     2   ar
     6     2    12    1
     7    12    13    2
     8    13    14    1
     9    14    15    2
    10    15    16    1
    11    16    17    2
    12    17    18    1
    13    18    19    2
    14    19    20    1
    15     2     3   ar
    16     3     4   ar
    17     4     5   ar
    18     5     6   ar
    19     6     7   ar
    20     7     8    1
    21     7     9   ar
    22     9    26    1
    23    26    27    1
    24    27    28    1
    25    28    29    1
    26    29    30    1
    27    30    31    1
    28    31    32    1
    29    32    33    1
    30    30    34    1
    31     9    10   ar
    32    10     1   ar
    33    20    12    1
    34    10     4   ar
    35    19    15    1
    36    34    27    1
    37    33    30    1
    38    22    25    1
    39     8    11    1
@<TRIPOS>MOLECULE
*****
 34 39 0 0 0
SMALL
GASTEIGER

@<TRIPOS>ATOM
      1 C         141.4885  141.3164  163.8523 C.ar    1  UNL1        0.0903
      2 C         141.6490  140.4620  165.0748 C.ar    1  UNL1        0.1460
      3 O         142.5711  139.3299  164.7312 O.2     1  UNL1       -0.4537
      4 C         142.9805  139.4846  163.2964 C.ar    1  UNL1        0.1454
      5 C         143.8761  138.6661  162.4144 C.ar    1  UNL1        0.0406
      6 C         144.1026  139.0753  160.9893 C.ar    1  UNL1        0.0395
      7 C         143.4335  140.3031  160.4461 C.ar    1  UNL1        0.1311
      8 O         143.6601  140.7123  159.0209 O.3     1  UNL1       -0.5058
      9 C         142.5380  141.1216  161.3281 C.ar    1  UNL1        0.0308
     10 C         142.3114  140.7123  162.7533 C.ar    1  UNL1        0.0421
     11 H         144.2196  140.2010  158.4699 H       1  UNL1        0.2922
     12 C         141.0011  140.6983  166.4068 C.2     1  UNL1        0.0170
     13 C         140.0580  139.6788  166.9735 C.2     1  UNL1        0.0006
     14 C         139.4101  139.9151  168.3056 C.2     1  UNL1        0.0186
     15 C         139.7054  141.1709  169.0710 C.2     1  UNL1        0.0777
     16 N         139.2204  141.6751  170.3978 N.2     1  UNL1       -0.2442
     17 C         139.8637  143.0063  170.6512 C.2     1  UNL1        0.0985
     18 C         140.7464  143.3247  169.4810 C.2     1  UNL1        0.0182
     19 C         140.6485  142.1903  168.5043 C.2     1  UNL1        0.0015
     20 C         141.2964  141.9540  167.1723 C.3     1  UNL1        0.0573
     21 C         140.4189  145.1371  163.9465 C.3     1  UNL1        0.1109
     22 N         141.2554  143.8964  164.0515 N.am    1  UNL1       -0.2991
     23 C         140.6521  142.5571  163.7474 C.2     1  UNL1        0.2489
     24 O         139.2123  142.4586  163.3384 O.2     1  UNL1       -0.2700
     25 H         142.2004  143.9611  164.3199 H       1  UNL1        0.1498
     26 C         141.8689  142.3493  160.7850 C.3     1  UNL1        0.1023
     27 N         140.7671  142.2187  159.7756 N.3     1  UNL1       -0.2687
     28 C         140.5474  143.1106  158.5897 C.3     1  UNL1        0.0726
     29 C         139.3360  142.6163  157.8560 C.3     1  UNL1        0.0235
     30 C         138.8069  141.4189  158.5885 C.3     1  UNL1        0.0707
     31 C         138.1122  140.2159  159.1540 C.3     1  UNL1        0.1458
     32 O         137.1066  140.2741  158.0425 O.3     1  UNL1       -0.3535
     33 C         137.8015  141.4772  157.4770 C.3     1  UNL1        0.1458
     34 C         139.6915  141.1732  159.7749 C.3     1  UNL1        0.0772
@<TRIPOS>BOND
     1    21    22    1
     2    22    23   am
     3    23    24    2
     4    23     1    1
     5     1     2   ar
     6     2    12    1
     7    12    13    2
     8    13    14    1
     9    14    15    2
    10    15    16    1
    11    16    17    2
    12    17    18    1
    13    18    19    2
    14    19    20    1
    15     2     3   ar
    16     3     4   ar
    17     4     5   ar
    18     5     6   ar
    19     6     7   ar
    20     7     8    1
    21     7     9   ar
    22     9    26    1
    23    26    27    1
    24    27    28    1
    25    28    29    1
    26    29    30    1
    27    30    31    1
    28    31    32    1
    29    32    33    1
    30    30    34    1
    31     9    10   ar
    32    10     1   ar
    33    20    12    1
    34    10     4   ar
    35    19    15    1
    36    34    27    1
    37    33    30    1
    38    22    25    1
    39     8    11    1
@<TRIPOS>MOLECULE
*****
 34 39 0 0 0
SMALL
GASTEIGER

@<TRIPOS>ATOM
      1 C         140.6330  140.9889  163.4797 C.ar    1  UNL1        0.0903
      2 C         140.3787  139.9431  164.5245 C.ar    1  UNL1        0.1460
      3 O         139.2733  139.0562  164.0332 O.2     1  UNL1       -0.4537
      4 C         138.8445  139.5537  162.6846 C.ar    1  UNL1        0.1454
      5 C         137.7974  139.0735  161.7240 C.ar    1  UNL1        0.0406
      6 C         137.5906  139.7877  160.4213 C.ar    1  UNL1        0.0395
      7 C         138.4310  140.9822  160.0792 C.ar    1  UNL1        0.1311
      8 O         138.2242  141.6964  158.7764 O.3     1  UNL1       -0.5058
      9 C         139.4781  141.4624  161.0398 C.ar    1  UNL1        0.0308
     10 C         139.6848  140.7482  162.3425 C.ar    1  UNL1        0.0421
     11 H         137.5701  141.3963  158.1763 H       1  UNL1        0.2922
     12 C         141.1026  139.8081  165.8313 C.2     1  UNL1        0.0170
     13 C         142.3560  138.9882  165.9131 C.2     1  UNL1        0.0006
     14 C         143.0800  138.8531  167.2199 C.2     1  UNL1        0.0186
     15 C         142.5505  139.5379  168.4449 C.2     1  UNL1        0.0777
     16 N         143.0446  139.5865  169.8603 N.2     1  UNL1       -0.2442
     17 C         142.0965  140.4364  170.6534 C.2     1  UNL1        0.0985
     18 C         141.0165  140.9131  169.7280 C.2     1  UNL1        0.0182
     19 C         141.2971  140.3578  168.3631 C.2     1  UNL1        0.0015
     20 C         140.5732  140.4929  167.0563 C.3     1  UNL1        0.0573
     21 C         143.9794  143.0425  162.9013 C.3     1  UNL1        0.1109
     22 N         142.9565  141.9482  162.8229 N.am    1  UNL1       -0.2991
     23 C         141.6559  142.0832  163.5581 C.2     1  UNL1        0.2489
     24 O         141.3785  143.3123  164.3717 O.2     1  UNL1       -0.2700
     25 H         143.1387  141.1415  162.2888 H       1  UNL1        0.1498
     26 C         140.3184  142.6569  160.6977 C.3     1  UNL1        0.1023
     27 N         141.5715  142.4862  159.8911 N.3     1  UNL1       -0.2687
     28 C         142.4790  143.5873  159.4281 C.3     1  UNL1        0.0726
     29 C         143.6054  142.9660  158.6567 C.3     1  UNL1        0.0235
     30 C         143.3942  141.4810  158.6428 C.3     1  UNL1        0.0707
     31 C         143.3816  139.9876  158.5030 C.3     1  UNL1        0.1458
     32 O         144.6523  140.0513  157.7084 O.3     1  UNL1       -0.3535
     33 C         144.6648  141.5447  157.8483 C.3     1  UNL1        0.1458
     34 C         142.1371  141.1844  159.4058 C.3     1  UNL1        0.0772
@<TRIPOS>BOND
     1    21    22    1
     2    22    23   am
     3    23    24    2
     4    23     1    1
     5     1     2   ar
     6     2    12    1
     7    12    13    2
     8    13    14    1
     9    14    15    2
    10    15    16    1
    11    16    17    2
    12    17    18    1
    13    18    19    2
    14    19    20    1
    15     2     3   ar
    16     3     4   ar
    17     4     5   ar
    18     5     6   ar
    19     6     7   ar
    20     7     8    1
    21     7     9   ar
    22     9    26    1
    23    26    27    1
    24    27    28    1
    25    28    29    1
    26    29    30    1
    27    30    31    1
    28    31    32    1
    29    32    33    1
    30    30    34    1
    31     9    10   ar
    32    10     1   ar
    33    20    12    1
    34    10     4   ar
    35    19    15    1
    36    34    27    1
    37    33    30    1
    38    22    25    1
    39     8    11    1
@<TRIPOS>MOLECULE
*****
 34 39 0 0 0
SMALL
GASTEIGER

@<TRIPOS>ATOM
      1 C         139.8728  141.1985  162.9226 C.ar    1  UNL1        0.0903
      2 C         139.9019  140.4963  161.5974 C.ar    1  UNL1        0.1460
      3 O         139.5260  139.0620  161.8246 O.2     1  UNL1       -0.4537
      4 C         139.2646  138.8778  163.2901 C.ar    1  UNL1        0.1454
      5 C         138.8592  137.6783  164.0943 C.ar    1  UNL1        0.0406
      6 C         138.6681  137.7992  165.5771 C.ar    1  UNL1        0.0395
      7 C         138.8824  139.1197  166.2557 C.ar    1  UNL1        0.1311
      8 O         138.6913  139.2406  167.7386 O.3     1  UNL1       -0.5058
      9 C         139.2879  140.3192  165.4515 C.ar    1  UNL1        0.0308
     10 C         139.4790  140.1982  163.9687 C.ar    1  UNL1        0.0421
     11 H         138.4380  138.4913  168.2410 H       1  UNL1        0.2922
     12 C         140.2463  141.1190  160.2770 C.2     1  UNL1        0.0170
     13 C         141.6685  141.1281  159.8002 C.2     1  UNL1        0.0006
     14 C         142.0129  141.7508  158.4798 C.2     1  UNL1        0.0186
     15 C         140.9352  142.3644  157.6361 C.2     1  UNL1        0.0777
     16 N         140.9720  143.0461  156.3004 N.2     1  UNL1       -0.2442
     17 C         139.5725  143.4583  155.9517 C.2     1  UNL1        0.0985
     18 C         138.6708  143.0314  157.0717 C.2     1  UNL1        0.0182
     19 C         139.5130  142.3553  158.1128 C.2     1  UNL1        0.0015
     20 C         139.1686  141.7326  159.4332 C.3     1  UNL1        0.0573
     21 C         139.4409  145.1366  163.1576 C.3     1  UNL1        0.1109
     22 N         139.1306  143.6884  162.9202 N.am    1  UNL1       -0.2991
     23 C         140.1831  142.6467  163.1600 C.2     1  UNL1        0.2489
     24 O         141.5457  143.0534  163.6371 O.2     1  UNL1       -0.2700
     25 H         138.2362  143.4215  162.6070 H       1  UNL1        0.1498
     26 C         139.5022  141.6396  166.1301 C.3     1  UNL1        0.1023
     27 N         140.6361  141.8105  167.0971 N.3     1  UNL1       -0.2687
     28 C         141.9868  141.1661  166.9950 C.3     1  UNL1        0.0726
     29 C         142.8039  141.6132  168.1708 C.3     1  UNL1        0.0235
     30 C         141.9582  142.5340  168.9996 C.3     1  UNL1        0.0707
     31 C         141.3003  143.4702  169.9695 C.3     1  UNL1        0.1458
     32 O         142.5526  143.4951  170.7949 O.3     1  UNL1       -0.3535
     33 C         143.2104  142.5588  169.8250 C.3     1  UNL1        0.1458
     34 C         140.6184  142.6560  168.3361 C.3     1  UNL1        0.0772
@<TRIPOS>BOND
     1    21    22    1
     2    22    23   am
     3    23    24    2
     4    23     1    1
     5     1     2   ar
     6     2    12    1
     7    12    13    2
     8    13    14    1
     9    14    15    2
    10    15    16    1
    11    16    17    2
    12    17    18    1
    13    18    19    2
    14    19    20    1
    15     2     3   ar
    16     3     4   ar
    17     4     5   ar
    18     5     6   ar
    19     6     7   ar
    20     7     8    1
    21     7     9   ar
    22     9    26    1
    23    26    27    1
    24    27    28    1
    25    28    29    1
    26    29    30    1
    27    30    31    1
    28    31    32    1
    29    32    33    1
    30    30    34    1
    31     9    10   ar
    32    10     1   ar
    33    20    12    1
    34    10     4   ar
    35    19    15    1
    36    34    27    1
    37    33    30    1
    38    22    25    1
    39     8    11    1
@<TRIPOS>MOLECULE
*****
 34 39 0 0 0
SMALL
GASTEIGER

@<TRIPOS>ATOM
      1 C         141.8106  142.1734  162.8119 C.ar    1  UNL1        0.0903
      2 C         141.4844  142.3240  161.3555 C.ar    1  UNL1        0.1460
      3 O         140.2696  143.1963  161.2405 O.2     1  UNL1       -0.4537
      4 C         139.8450  143.5849  162.6257 C.ar    1  UNL1        0.1454
      5 C         138.7143  144.4327  163.1282 C.ar    1  UNL1        0.0406
      6 C         138.5359  144.6483  164.6018 C.ar    1  UNL1        0.0395
      7 C         139.4884  144.0161  165.5730 C.ar    1  UNL1        0.1311
      8 O         139.3100  144.2317  167.0467 O.3     1  UNL1       -0.5058
      9 C         140.6191  143.1683  165.0705 C.ar    1  UNL1        0.0308
     10 C         140.7975  142.9527  163.5969 C.ar    1  UNL1        0.0421
     11 H         138.6036  144.7613  167.3606 H       1  UNL1        0.2922
     12 C         142.2402  141.7100  160.2146 C.2     1  UNL1        0.0170
     13 C         143.5485  142.2997  159.7779 C.2     1  UNL1        0.0006
     14 C         144.3043  141.6857  158.6369 C.2     1  UNL1        0.0186
     15 C         143.7519  140.4821  157.9327 C.2     1  UNL1        0.0777
     16 N         144.2679  139.6662  156.7846 N.2     1  UNL1       -0.2442
     17 C         143.2785  138.5722  156.5117 C.2     1  UNL1        0.0985
     18 C         142.1511  138.7120  157.4912 C.2     1  UNL1        0.0182
     19 C         142.4437  139.8923  158.3694 C.2     1  UNL1        0.0015
     20 C         141.6879  140.5063  159.5104 C.3     1  UNL1        0.0573
     21 C         145.4755  141.1650  163.9531 C.3     1  UNL1        0.1109
     22 N         144.3361  141.9560  163.3820 N.am    1  UNL1       -0.2991
     23 C         142.9500  141.3824  163.3830 C.2     1  UNL1        0.2489
     24 O         142.7035  140.0179  163.9549 O.2     1  UNL1       -0.2700
     25 H         144.4980  142.8516  163.0066 H       1  UNL1        0.1498
     26 C         141.5716  142.5361  166.0417 C.3     1  UNL1        0.1023
     27 N         141.0446  141.7988  167.2370 N.3     1  UNL1       -0.2687
     28 C         140.0990  140.6347  167.2085 C.3     1  UNL1        0.0726
     29 C         139.8406  140.2126  168.6246 C.3     1  UNL1        0.0235
     30 C         140.6266  141.1159  169.5282 C.3     1  UNL1        0.0707
     31 C         141.3204  141.8927  170.6076 C.3     1  UNL1        0.1458
     32 O         140.6770  141.0232  171.6469 O.3     1  UNL1       -0.3535
     33 C         139.9832  140.2464  170.5674 C.3     1  UNL1        0.1458
     34 C         141.3707  142.0962  168.6706 C.3     1  UNL1        0.0772
@<TRIPOS>BOND
     1    21    22    1
     2    22    23   am
     3    23    24    2
     4    23     1    1
     5     1     2   ar
     6     2    12    1
     7    12    13    2
     8    13    14    1
     9    14    15    2
    10    15    16    1
    11    16    17    2
    12    17    18    1
    13    18    19    2
    14    19    20    1
    15     2     3   ar
    16     3     4   ar
    17     4     5   ar
    18     5     6   ar
    19     6     7   ar
    20     7     8    1
    21     7     9   ar
    22     9    26    1
    23    26    27    1
    24    27    28    1
    25    28    29    1
    26    29    30    1
    27    30    31    1
    28    31    32    1
    29    32    33    1
    30    30    34    1
    31     9    10   ar
    32    10     1   ar
    33    20    12    1
    34    10     4   ar
    35    19    15    1
    36    34    27    1
    37    33    30    1
    38    22    25    1
    39     8    11    1
