@<TRIPOS>MOLECULE
*****
 38 41 0 0 0
SMALL
GASTEIGER

@<TRIPOS>ATOM
      1 C         141.9035  141.5325  162.4735 C.3     1  UNL1        0.0791
      2 C         141.5077  141.8484  163.8855 C.ar    1  UNL1        0.0374
      3 C         142.5381  141.8295  164.9754 C.ar    1  UNL1        0.0023
      4 C         142.1423  142.1455  166.3874 C.ar    1  UNL1        0.0181
      5 C         143.1727  142.1265  167.4772 C.ar    1  UNL1        0.0082
      6 C         142.7769  142.4424  168.8891 C.ar    1  UNL1        0.0347
      7 BR        143.8073  142.4235  169.9791 Br      1  UNL1       -0.0490
      8 C         141.3507  142.7773  169.2111 C.ar    1  UNL1        0.0082
      9 C         140.3202  142.7962  168.1213 C.ar    1  UNL1        0.0197
     10 C         140.7161  142.4803  166.7094 C.ar    1  UNL1        0.0844
     11 N         139.6856  142.4992  165.6194 N.ar    1  UNL1       -0.2119
     12 C         140.0815  142.1833  164.2075 C.ar    1  UNL1        0.2211
     13 O         139.0510  142.2022  163.1176 O.3     1  UNL1       -0.4563
     14 C         137.6455  141.7654  163.4067 C.3     1  UNL1        0.2542
     15 C         141.1463  144.5269  159.2009 C.ar    1  UNL1        0.1067
     16 C         140.8280  143.0778  158.9800 C.ar    1  UNL1        0.0252
     17 C         141.0805  142.0797  160.0708 C.ar    1  UNL1       -0.0003
     18 C         141.6511  142.5306  161.3827 C.ar    1  UNL1        0.0035
     19 C         141.9694  143.9797  161.6037 C.ar    1  UNL1        0.0955
     20 N         141.7170  144.9779  160.5128 N.ar    1  UNL1       -0.2380
     21 S         140.8939  145.5250  158.1101 S.3     1  UNL1       -0.0950
     22 C         142.2557  144.9865  155.9640 C.3     1  UNL1        0.0130
     23 C         141.9874  145.8728  157.1440 C.3     1  UNL1        0.0637
     24 C         142.5517  140.2184  162.1525 C.3     1  UNL1        0.1159
     25 O         143.8517  140.9220  161.8973 O.3     1  UNL1       -0.3820
     26 H         144.5255  140.5886  162.5102 H       1  UNL1        0.2107
     27 C         141.2518  139.5149  162.4078 C.ar    1  UNL1        0.0046
     28 C         140.1841  139.5064  161.3542 C.ar    1  UNL1       -0.0019
     29 C         138.8842  138.8028  161.6095 C.ar    1  UNL1        0.0021
     30 C         138.6519  138.1077  162.9182 C.ar    1  UNL1        0.0296
     31 C         139.7196  138.1162  163.9717 C.ar    1  UNL1        0.1399
     32 F         139.4874  137.4211  165.2806 F       1  UNL1       -0.2042
     33 C         141.0195  138.8198  163.7165 C.ar    1  UNL1        0.0276
     34 C         143.1999  138.9044  161.8315 C.3     1  UNL1        0.0491
     35 C         144.0860  138.7794  160.6277 C.3     1  UNL1        0.0750
     36 N         143.5344  139.0497  159.2592 N.3     1  UNL1       -0.2702
     37 C         143.9467  140.2851  158.5150 C.3     1  UNL1        0.0897
     38 C         142.5706  138.0847  158.6349 C.3     1  UNL1        0.0897
@<TRIPOS>BOND
     1    22    23    1
     2    23    21    1
     3    21    15    1
     4    15    16   ar
     5    16    17   ar
     6    17    18   ar
     7     1    18    1
     8     1     2    1
     9     2     3   ar
    10     3     4   ar
    11     4     5   ar
    12     5     6   ar
    13     6     7    1
    14     6     8   ar
    15     8     9   ar
    16     9    10   ar
    17    10    11   ar
    18    11    12   ar
    19    12    13    1
    20    13    14    1
    21     1    24    1
    22    24    25    1
    23    24    34    1
    24    34    35    1
    25    35    36    1
    26    36    37    1
    27    36    38    1
    28    24    27    1
    29    27    28   ar
    30    28    29   ar
    31    29    30   ar
    32    30    31   ar
    33    31    32    1
    34    31    33   ar
    35    18    19   ar
    36    19    20   ar
    37    20    15   ar
    38    12     2   ar
    39    33    27   ar
    40    10     4   ar
    41    25    26    1
@<TRIPOS>MOLECULE
*****
 38 41 0 0 0
SMALL
GASTEIGER

@<TRIPOS>ATOM
      1 C         141.6887  142.7843  162.7849 C.3     1  UNL1        0.0791
      2 C         142.0006  142.5364  164.2311 C.ar    1  UNL1        0.0374
      3 C         140.9303  142.0331  165.1536 C.ar    1  UNL1        0.0023
      4 C         141.2422  141.7853  166.5998 C.ar    1  UNL1        0.0181
      5 C         140.1718  141.2820  167.5223 C.ar    1  UNL1        0.0082
      6 C         140.4837  141.0342  168.9684 C.ar    1  UNL1        0.0347
      7 BR        139.4134  140.5309  169.8909 Br      1  UNL1       -0.0490
      8 C         141.8660  141.2896  169.4919 C.ar    1  UNL1        0.0082
      9 C         142.9363  141.7929  168.5694 C.ar    1  UNL1        0.0197
     10 C         142.6244  142.0407  167.1233 C.ar    1  UNL1        0.0844
     11 N         143.6948  142.5440  166.2007 N.ar    1  UNL1       -0.2119
     12 C         143.3828  142.7918  164.7546 C.ar    1  UNL1        0.2211
     13 O         144.4532  143.2951  163.8321 O.3     1  UNL1       -0.4563
     14 C         145.3809  142.3264  163.1605 C.3     1  UNL1        0.2542
     15 C         141.8911  139.3989  159.8272 C.ar    1  UNL1        0.1067
     16 C         140.9561  139.3176  160.9974 C.ar    1  UNL1        0.0252
     17 C         140.8887  140.4460  161.9833 C.ar    1  UNL1       -0.0003
     18 C         141.7561  141.6558  161.7990 C.ar    1  UNL1        0.0035
     19 C         142.6910  141.7371  160.6288 C.ar    1  UNL1        0.0955
     20 N         142.7585  140.6087  159.6429 N.ar    1  UNL1       -0.2380
     21 S         141.9585  138.2704  158.8413 S.3     1  UNL1       -0.0950
     22 C         140.1451  139.3337  157.3144 C.3     1  UNL1        0.0130
     23 C         140.8958  138.1262  157.7925 C.3     1  UNL1        0.0637
     24 C         141.3094  144.1606  162.3247 C.3     1  UNL1        0.1159
     25 O         142.6082  144.2703  161.5823 O.3     1  UNL1       -0.3820
     26 H         142.4307  144.3981  160.6373 H       1  UNL1        0.2107
     27 C         140.0106  144.0509  163.0670 C.ar    1  UNL1        0.0046
     28 C         138.9314  143.1410  162.5598 C.ar    1  UNL1       -0.0019
     29 C         137.6326  143.0313  163.3022 C.ar    1  UNL1        0.0021
     30 C         137.4130  143.8315  164.5517 C.ar    1  UNL1        0.0296
     31 C         138.4923  144.7413  165.0590 C.ar    1  UNL1        0.1399
     32 F         138.2727  145.5416  166.3086 F       1  UNL1       -0.2042
     33 C         139.7911  144.8511  164.3166 C.ar    1  UNL1        0.0276
     34 C         140.9301  145.5370  161.8645 C.3     1  UNL1        0.0491
     35 C         140.1433  145.7147  160.5998 C.3     1  UNL1        0.0750
     36 N         140.5270  144.9546  159.3648 N.3     1  UNL1       -0.2702
     37 C         139.8552  143.6517  159.0470 C.3     1  UNL1        0.0897
     38 C         141.5823  145.4976  158.4476 C.3     1  UNL1        0.0897
@<TRIPOS>BOND
     1    22    23    1
     2    23    21    1
     3    21    15    1
     4    15    16   ar
     5    16    17   ar
     6    17    18   ar
     7     1    18    1
     8     1     2    1
     9     2     3   ar
    10     3     4   ar
    11     4     5   ar
    12     5     6   ar
    13     6     7    1
    14     6     8   ar
    15     8     9   ar
    16     9    10   ar
    17    10    11   ar
    18    11    12   ar
    19    12    13    1
    20    13    14    1
    21     1    24    1
    22    24    25    1
    23    24    34    1
    24    34    35    1
    25    35    36    1
    26    36    37    1
    27    36    38    1
    28    24    27    1
    29    27    28   ar
    30    28    29   ar
    31    29    30   ar
    32    30    31   ar
    33    31    32    1
    34    31    33   ar
    35    18    19   ar
    36    19    20   ar
    37    20    15   ar
    38    12     2   ar
    39    33    27   ar
    40    10     4   ar
    41    25    26    1
@<TRIPOS>MOLECULE
*****
 38 41 0 0 0
SMALL
GASTEIGER

@<TRIPOS>ATOM
      1 C         140.7887  140.5603  163.7233 C.3     1  UNL1        0.0791
      2 C         140.5425  140.6278  165.2015 C.ar    1  UNL1        0.0374
      3 C         141.4203  141.4795  166.0699 C.ar    1  UNL1        0.0023
      4 C         141.1742  141.5470  167.5480 C.ar    1  UNL1        0.0181
      5 C         142.0520  142.3987  168.4164 C.ar    1  UNL1        0.0082
      6 C         141.8058  142.4661  169.8945 C.ar    1  UNL1        0.0347
      7 BR        142.6836  143.3179  170.7629 Br      1  UNL1       -0.0490
      8 C         140.6819  141.6819  170.5042 C.ar    1  UNL1        0.0082
      9 C         139.8041  140.8302  169.6359 C.ar    1  UNL1        0.0197
     10 C         140.0503  140.7628  168.1578 C.ar    1  UNL1        0.0844
     11 N         139.1725  139.9110  167.2893 N.ar    1  UNL1       -0.2119
     12 C         139.4186  139.8436  165.8112 C.ar    1  UNL1        0.2211
     13 O         138.5408  138.9919  164.9428 O.3     1  UNL1       -0.4563
     14 C         138.6425  137.4969  165.0108 C.3     1  UNL1        0.2542
     15 C         140.4707  144.2842  161.2171 C.ar    1  UNL1        0.1067
     16 C         141.7278  143.4663  161.1889 C.ar    1  UNL1        0.0252
     17 C         141.8338  142.2250  162.0243 C.ar    1  UNL1       -0.0003
     18 C         140.6827  141.8016  162.8879 C.ar    1  UNL1        0.0035
     19 C         139.4256  142.6195  162.9161 C.ar    1  UNL1        0.0955
     20 N         139.3196  143.8608  162.0806 N.ar    1  UNL1       -0.2380
     21 S         140.3647  145.5255  160.3816 S.3     1  UNL1       -0.0950
     22 C         141.5958  145.6567  158.0976 C.3     1  UNL1        0.0130
     23 C         140.3410  145.4228  158.8854 C.3     1  UNL1        0.0637
     24 C         141.1408  139.2515  163.0806 C.3     1  UNL1        0.1159
     25 O         139.8941  139.3242  162.2496 O.3     1  UNL1       -0.3820
     26 H         140.1323  139.3319  161.3093 H       1  UNL1        0.2107
     27 C         142.3874  139.1788  163.9116 C.ar    1  UNL1        0.0046
     28 C         142.4465  138.2610  165.0965 C.ar    1  UNL1       -0.0019
     29 C         143.6931  138.1883  165.9275 C.ar    1  UNL1        0.0021
     30 C         144.8807  139.0334  165.5737 C.ar    1  UNL1        0.0296
     31 C         144.8216  139.9513  164.3888 C.ar    1  UNL1        0.1399
     32 F         146.0093  140.7966  164.0349 F       1  UNL1       -0.2042
     33 C         143.5750  140.0240  163.5578 C.ar    1  UNL1        0.0276
     34 C         141.4929  137.9427  162.4379 C.3     1  UNL1        0.0491
     35 C         141.5580  137.8346  160.9433 C.3     1  UNL1        0.0750
     36 N         142.2126  138.9196  160.1407 N.3     1  UNL1       -0.2702
     37 C         141.3804  139.8167  159.2731 C.3     1  UNL1        0.0897
     38 C         143.6993  139.1076  160.2056 C.3     1  UNL1        0.0897
@<TRIPOS>BOND
     1    22    23    1
     2    23    21    1
     3    21    15    1
     4    15    16   ar
     5    16    17   ar
     6    17    18   ar
     7     1    18    1
     8     1     2    1
     9     2     3   ar
    10     3     4   ar
    11     4     5   ar
    12     5     6   ar
    13     6     7    1
    14     6     8   ar
    15     8     9   ar
    16     9    10   ar
    17    10    11   ar
    18    11    12   ar
    19    12    13    1
    20    13    14    1
    21     1    24    1
    22    24    25    1
    23    24    34    1
    24    34    35    1
    25    35    36    1
    26    36    37    1
    27    36    38    1
    28    24    27    1
    29    27    28   ar
    30    28    29   ar
    31    29    30   ar
    32    30    31   ar
    33    31    32    1
    34    31    33   ar
    35    18    19   ar
    36    19    20   ar
    37    20    15   ar
    38    12     2   ar
    39    33    27   ar
    40    10     4   ar
    41    25    26    1
@<TRIPOS>MOLECULE
*****
 38 41 0 0 0
SMALL
GASTEIGER

@<TRIPOS>ATOM
      1 C         140.6215  141.0564  164.3602 C.3     1  UNL1        0.0791
      2 C         140.5264  142.1541  163.3422 C.ar    1  UNL1        0.0374
      3 C         141.2857  142.0491  162.0529 C.ar    1  UNL1        0.0023
      4 C         141.1906  143.1468  161.0350 C.ar    1  UNL1        0.0181
      5 C         141.9500  143.0418  159.7457 C.ar    1  UNL1        0.0082
      6 C         141.8548  144.1395  158.7278 C.ar    1  UNL1        0.0347
      7 BR        142.6142  144.0346  157.4384 Br      1  UNL1       -0.0490
      8 C         141.0004  145.3420  158.9992 C.ar    1  UNL1        0.0082
      9 C         140.2410  145.4470  160.2885 C.ar    1  UNL1        0.0197
     10 C         140.3361  144.3494  161.3064 C.ar    1  UNL1        0.0844
     11 N         139.5768  144.4543  162.5958 N.ar    1  UNL1       -0.2119
     12 C         139.6719  143.3566  163.6136 C.ar    1  UNL1        0.2211
     13 O         138.9125  143.4616  164.9030 O.3     1  UNL1       -0.4563
     14 C         138.5956  144.8097  165.4792 C.3     1  UNL1        0.2542
     15 C         141.3005  142.0595  168.6941 C.ar    1  UNL1        0.1067
     16 C         142.2951  142.4943  167.6588 C.ar    1  UNL1        0.0252
     17 C         142.0688  142.1599  166.2142 C.ar    1  UNL1       -0.0003
     18 C         140.8478  141.3908  165.8048 C.ar    1  UNL1        0.0035
     19 C         139.8532  140.9560  166.8399 C.ar    1  UNL1        0.0955
     20 N         140.0795  141.2904  168.2846 N.ar    1  UNL1       -0.2380
     21 S         141.5268  142.3939  170.1387 S.3     1  UNL1       -0.0950
     22 C         142.7711  140.1542  170.5691 C.3     1  UNL1        0.0130
     23 C         142.0055  141.3353  171.0875 C.3     1  UNL1        0.0637
     24 C         140.4902  139.6244  163.9335 C.3     1  UNL1        0.1159
     25 O         139.0562  139.8654  163.5656 O.3     1  UNL1       -0.3820
     26 H         138.9299  139.6849  162.6209 H       1  UNL1        0.2107
     27 C         141.9243  139.3833  164.3013 C.ar    1  UNL1        0.0046
     28 C         143.0222  139.9282  163.4366 C.ar    1  UNL1       -0.0019
     29 C         144.4563  139.6871  163.8044 C.ar    1  UNL1        0.0021
     30 C         144.7925  138.9012  165.0370 C.ar    1  UNL1        0.0296
     31 C         143.6946  138.3564  165.9017 C.ar    1  UNL1        0.1399
     32 F         144.0308  137.5705  167.1344 F       1  UNL1       -0.2042
     33 C         142.2605  138.5975  165.5339 C.ar    1  UNL1        0.0276
     34 C         140.3590  138.1924  163.5067 C.3     1  UNL1        0.0491
     35 C         139.6488  137.8523  162.2300 C.3     1  UNL1        0.0750
     36 N         140.0572  138.5116  160.9461 N.3     1  UNL1       -0.2702
     37 C         139.0457  139.2673  160.1362 C.3     1  UNL1        0.0897
     38 C         141.4770  138.4153  160.4720 C.3     1  UNL1        0.0897
@<TRIPOS>BOND
     1    22    23    1
     2    23    21    1
     3    21    15    1
     4    15    16   ar
     5    16    17   ar
     6    17    18   ar
     7     1    18    1
     8     1     2    1
     9     2     3   ar
    10     3     4   ar
    11     4     5   ar
    12     5     6   ar
    13     6     7    1
    14     6     8   ar
    15     8     9   ar
    16     9    10   ar
    17    10    11   ar
    18    11    12   ar
    19    12    13    1
    20    13    14    1
    21     1    24    1
    22    24    25    1
    23    24    34    1
    24    34    35    1
    25    35    36    1
    26    36    37    1
    27    36    38    1
    28    24    27    1
    29    27    28   ar
    30    28    29   ar
    31    29    30   ar
    32    30    31   ar
    33    31    32    1
    34    31    33   ar
    35    18    19   ar
    36    19    20   ar
    37    20    15   ar
    38    12     2   ar
    39    33    27   ar
    40    10     4   ar
    41    25    26    1
@<TRIPOS>MOLECULE
*****
 38 41 0 0 0
SMALL
GASTEIGER

@<TRIPOS>ATOM
      1 C         140.7970  141.7313  164.3712 C.3     1  UNL1        0.0791
      2 C         141.7512  141.8768  163.2229 C.ar    1  UNL1        0.0374
      3 C         141.5483  141.0730  161.9728 C.ar    1  UNL1        0.0023
      4 C         142.5025  141.2185  160.8245 C.ar    1  UNL1        0.0181
      5 C         142.2996  140.4147  159.5744 C.ar    1  UNL1        0.0082
      6 C         143.2538  140.5602  158.4262 C.ar    1  UNL1        0.0347
      7 BR        143.0509  139.7565  157.1760 Br      1  UNL1       -0.0490
      8 C         144.4107  141.5095  158.5281 C.ar    1  UNL1        0.0082
      9 C         144.6136  142.3132  159.7782 C.ar    1  UNL1        0.0197
     10 C         143.6594  142.1677  160.9264 C.ar    1  UNL1        0.0844
     11 N         143.8623  142.9715  162.1766 N.ar    1  UNL1       -0.2119
     12 C         142.9081  142.8260  163.3248 C.ar    1  UNL1        0.2211
     13 O         143.1110  143.6298  164.5750 O.3     1  UNL1       -0.4563
     14 C         144.3966  143.5161  165.3394 C.3     1  UNL1        0.2542
     15 C         142.3661  140.9418  168.5142 C.ar    1  UNL1        0.1067
     16 C         142.6975  140.0002  167.3946 C.ar    1  UNL1        0.0252
     17 C         142.1745  140.2633  166.0136 C.ar    1  UNL1       -0.0003
     18 C         141.3200  141.4681  165.7522 C.ar    1  UNL1        0.0035
     19 C         140.9886  142.4098  166.8717 C.ar    1  UNL1        0.0955
     20 N         141.5116  142.1466  168.2528 N.ar    1  UNL1       -0.2380
     21 S         142.8891  140.6786  169.8952 S.3     1  UNL1       -0.0950
     22 C         140.5849  140.2971  171.0332 C.3     1  UNL1        0.0130
     23 C         141.9848  140.8336  171.0819 C.3     1  UNL1        0.0637
     24 C         139.3199  141.8490  164.1384 C.3     1  UNL1        0.1159
     25 O         139.5000  143.2777  163.7183 O.3     1  UNL1       -0.3820
     26 H         139.1936  143.3870  162.8045 H       1  UNL1        0.2107
     27 C         139.1398  140.4204  164.5586 C.ar    1  UNL1        0.0046
     28 C         139.7294  139.3157  163.7327 C.ar    1  UNL1       -0.0019
     29 C         139.5493  137.8871  164.1529 C.ar    1  UNL1        0.0021
     30 C         138.7797  137.5631  165.3989 C.ar    1  UNL1        0.0296
     31 C         138.1901  138.6677  166.2248 C.ar    1  UNL1        0.1399
     32 F         137.4204  138.3438  167.4709 F       1  UNL1       -0.2042
     33 C         138.3702  140.0964  165.8046 C.ar    1  UNL1        0.0276
     34 C         137.8427  141.9668  163.9057 C.3     1  UNL1        0.0491
     35 C         137.3272  142.4121  162.5693 C.3     1  UNL1        0.0750
     36 N         137.8663  141.7940  161.3135 N.3     1  UNL1       -0.2702
     37 C         138.6334  142.6323  160.3344 C.3     1  UNL1        0.0897
     38 C         137.6384  140.3375  161.0367 C.3     1  UNL1        0.0897
@<TRIPOS>BOND
     1    22    23    1
     2    23    21    1
     3    21    15    1
     4    15    16   ar
     5    16    17   ar
     6    17    18   ar
     7     1    18    1
     8     1     2    1
     9     2     3   ar
    10     3     4   ar
    11     4     5   ar
    12     5     6   ar
    13     6     7    1
    14     6     8   ar
    15     8     9   ar
    16     9    10   ar
    17    10    11   ar
    18    11    12   ar
    19    12    13    1
    20    13    14    1
    21     1    24    1
    22    24    25    1
    23    24    34    1
    24    34    35    1
    25    35    36    1
    26    36    37    1
    27    36    38    1
    28    24    27    1
    29    27    28   ar
    30    28    29   ar
    31    29    30   ar
    32    30    31   ar
    33    31    32    1
    34    31    33   ar
    35    18    19   ar
    36    19    20   ar
    37    20    15   ar
    38    12     2   ar
    39    33    27   ar
    40    10     4   ar
    41    25    26    1
@<TRIPOS>MOLECULE
*****
 38 41 0 0 0
SMALL
GASTEIGER

@<TRIPOS>ATOM
      1 C         142.2805  141.2475  163.1225 C.3     1  UNL1        0.0791
      2 C         142.0374  142.2283  162.0139 C.ar    1  UNL1        0.0374
      3 C         141.0160  141.9280  160.9574 C.ar    1  UNL1        0.0023
      4 C         140.7729  142.9088  159.8488 C.ar    1  UNL1        0.0181
      5 C         139.7514  142.6085  158.7922 C.ar    1  UNL1        0.0082
      6 C         139.5084  143.5893  157.6837 C.ar    1  UNL1        0.0347
      7 BR        138.4869  143.2889  156.6270 Br      1  UNL1       -0.0490
      8 C         140.2868  144.8704  157.6317 C.ar    1  UNL1        0.0082
      9 C         141.3083  145.1708  158.6882 C.ar    1  UNL1        0.0197
     10 C         141.5513  144.1900  159.7968 C.ar    1  UNL1        0.0844
     11 N         142.5728  144.4903  160.8534 N.ar    1  UNL1       -0.2119
     12 C         142.8159  143.5095  161.9619 C.ar    1  UNL1        0.2211
     13 O         143.8374  143.8098  163.0186 O.3     1  UNL1       -0.4563
     14 C         143.6521  144.9887  163.9273 C.3     1  UNL1        0.2542
     15 C         141.0959  142.2790  167.3395 C.ar    1  UNL1        0.1067
     16 C         140.0828  142.3552  166.2358 C.ar    1  UNL1        0.0252
     17 C         140.4777  142.0114  164.8302 C.ar    1  UNL1       -0.0003
     18 C         141.8856  141.5913  164.5282 C.ar    1  UNL1        0.0035
     19 C         142.8987  141.5151  165.6317 C.ar    1  UNL1        0.0955
     20 N         142.5038  141.8590  167.0374 N.ar    1  UNL1       -0.2380
     21 S         140.7010  142.6229  168.7451 S.3     1  UNL1       -0.0950
     22 C         139.9602  140.1697  169.1731 C.3     1  UNL1        0.0130
     23 C         139.9947  141.6087  169.5951 C.3     1  UNL1        0.0637
     24 C         142.9185  139.9228  162.8255 C.3     1  UNL1        0.1159
     25 O         144.1940  140.6201  162.4555 O.3     1  UNL1       -0.3820
     26 H         144.9076  140.3206  163.0404 H       1  UNL1        0.2107
     27 C         141.6430  139.2255  163.1954 C.ar    1  UNL1        0.0046
     28 C         141.5471  138.4745  164.4903 C.ar    1  UNL1       -0.0019
     29 C         140.2716  137.7773  164.8602 C.ar    1  UNL1        0.0021
     30 C         139.0920  137.8310  163.9353 C.ar    1  UNL1        0.0296
     31 C         139.1878  138.5820  162.6404 C.ar    1  UNL1        0.1399
     32 F         138.0082  138.6357  161.7154 F       1  UNL1       -0.2042
     33 C         140.4634  139.2793  162.2705 C.ar    1  UNL1        0.0276
     34 C         143.5565  138.5982  162.5284 C.3     1  UNL1        0.0491
     35 C         144.2773  138.3872  161.2300 C.3     1  UNL1        0.0750
     36 N         143.5845  138.6780  159.9317 N.3     1  UNL1       -0.2702
     37 C         143.8049  139.9915  159.2417 C.3     1  UNL1        0.0897
     38 C         142.6714  137.6553  159.3234 C.3     1  UNL1        0.0897
@<TRIPOS>BOND
     1    22    23    1
     2    23    21    1
     3    21    15    1
     4    15    16   ar
     5    16    17   ar
     6    17    18   ar
     7     1    18    1
     8     1     2    1
     9     2     3   ar
    10     3     4   ar
    11     4     5   ar
    12     5     6   ar
    13     6     7    1
    14     6     8   ar
    15     8     9   ar
    16     9    10   ar
    17    10    11   ar
    18    11    12   ar
    19    12    13    1
    20    13    14    1
    21     1    24    1
    22    24    25    1
    23    24    34    1
    24    34    35    1
    25    35    36    1
    26    36    37    1
    27    36    38    1
    28    24    27    1
    29    27    28   ar
    30    28    29   ar
    31    29    30   ar
    32    30    31   ar
    33    31    32    1
    34    31    33   ar
    35    18    19   ar
    36    19    20   ar
    37    20    15   ar
    38    12     2   ar
    39    33    27   ar
    40    10     4   ar
    41    25    26    1
@<TRIPOS>MOLECULE
*****
 38 41 0 0 0
SMALL
GASTEIGER

@<TRIPOS>ATOM
      1 C         141.2740  140.5658  162.0939 C.3     1  UNL1        0.0791
      2 C         140.7568  140.3924  163.4912 C.ar    1  UNL1        0.0374
      3 C         141.1863  141.3388  164.5728 C.ar    1  UNL1        0.0023
      4 C         140.6691  141.1654  165.9701 C.ar    1  UNL1        0.0181
      5 C         141.0987  142.1117  167.0517 C.ar    1  UNL1        0.0082
      6 C         140.5814  141.9383  168.4489 C.ar    1  UNL1        0.0347
      7 BR        141.0110  142.8847  169.5306 Br      1  UNL1       -0.0490
      8 C         139.6347  140.8185  168.7646 C.ar    1  UNL1        0.0082
      9 C         139.2051  139.8721  167.6831 C.ar    1  UNL1        0.0197
     10 C         139.7223  140.0456  166.2858 C.ar    1  UNL1        0.0844
     11 N         139.2928  139.0992  165.2042 N.ar    1  UNL1       -0.2119
     12 C         139.8100  139.2726  163.8069 C.ar    1  UNL1        0.2211
     13 O         139.3805  138.3262  162.7253 O.3     1  UNL1       -0.4563
     14 C         138.0391  138.4903  162.0743 C.3     1  UNL1        0.2542
     15 C         140.4890  144.3942  159.8630 C.ar    1  UNL1        0.1067
     16 C         141.8857  143.8558  159.9605 C.ar    1  UNL1        0.0252
     17 C         142.1473  142.5797  160.7042 C.ar    1  UNL1       -0.0003
     18 C         141.0124  141.8419  161.3503 C.ar    1  UNL1        0.0035
     19 C         139.6157  142.3802  161.2528 C.ar    1  UNL1        0.0955
     20 N         139.3540  143.6564  160.5091 N.ar    1  UNL1       -0.2380
     21 S         140.2273  145.6703  159.1194 S.3     1  UNL1       -0.0950
     22 C         139.8489  144.4540  156.8551 C.3     1  UNL1        0.0130
     23 C         140.2463  145.6818  157.6196 C.3     1  UNL1        0.0637
     24 C         142.0529  139.4630  161.4402 C.3     1  UNL1        0.1159
     25 O         140.9721  139.3094  160.4115 O.3     1  UNL1       -0.3820
     26 H         141.3392  139.4766  159.5294 H       1  UNL1        0.2107
     27 C         143.1337  139.6167  162.4690 C.ar    1  UNL1        0.0046
     28 C         143.2033  138.6704  163.6307 C.ar    1  UNL1       -0.0019
     29 C         144.2841  138.8240  164.6594 C.ar    1  UNL1        0.0021
     30 C         145.2953  139.9239  164.5264 C.ar    1  UNL1        0.0296
     31 C         145.2257  140.8702  163.3647 C.ar    1  UNL1        0.1399
     32 F         146.2369  141.9701  163.2317 F       1  UNL1       -0.2042
     33 C         144.1449  140.7165  162.3360 C.ar    1  UNL1        0.0276
     34 C         142.8318  138.3603  160.7866 C.3     1  UNL1        0.0491
     35 C         142.5796  138.0141  159.3491 C.3     1  UNL1        0.0750
     36 N         143.1761  138.8548  158.2594 N.3     1  UNL1       -0.2702
     37 C         143.9469  140.0943  158.6052 C.3     1  UNL1        0.0897
     38 C         143.0017  138.4562  156.8239 C.3     1  UNL1        0.0897
@<TRIPOS>BOND
     1    22    23    1
     2    23    21    1
     3    21    15    1
     4    15    16   ar
     5    16    17   ar
     6    17    18   ar
     7     1    18    1
     8     1     2    1
     9     2     3   ar
    10     3     4   ar
    11     4     5   ar
    12     5     6   ar
    13     6     7    1
    14     6     8   ar
    15     8     9   ar
    16     9    10   ar
    17    10    11   ar
    18    11    12   ar
    19    12    13    1
    20    13    14    1
    21     1    24    1
    22    24    25    1
    23    24    34    1
    24    34    35    1
    25    35    36    1
    26    36    37    1
    27    36    38    1
    28    24    27    1
    29    27    28   ar
    30    28    29   ar
    31    29    30   ar
    32    30    31   ar
    33    31    32    1
    34    31    33   ar
    35    18    19   ar
    36    19    20   ar
    37    20    15   ar
    38    12     2   ar
    39    33    27   ar
    40    10     4   ar
    41    25    26    1
@<TRIPOS>MOLECULE
*****
 38 41 0 0 0
SMALL
GASTEIGER

@<TRIPOS>ATOM
      1 C         140.1793  141.7150  162.9886 C.3     1  UNL1        0.0791
      2 C         140.2584  142.0981  164.4367 C.ar    1  UNL1        0.0374
      3 C         141.1148  141.3030  165.3771 C.ar    1  UNL1        0.0023
      4 C         141.1940  141.6860  166.8252 C.ar    1  UNL1        0.0181
      5 C         142.0504  140.8909  167.7656 C.ar    1  UNL1        0.0082
      6 C         142.1295  141.2740  169.2137 C.ar    1  UNL1        0.0347
      7 BR        142.9860  140.4789  170.1541 Br      1  UNL1       -0.0490
      8 C         141.3523  142.4522  169.7214 C.ar    1  UNL1        0.0082
      9 C         140.4959  143.2473  168.7810 C.ar    1  UNL1        0.0197
     10 C         140.4167  142.8642  167.3329 C.ar    1  UNL1        0.0844
     11 N         139.5603  143.6593  166.3925 N.ar    1  UNL1       -0.2119
     12 C         139.4812  143.2763  164.9444 C.ar    1  UNL1        0.2211
     13 O         138.6247  144.0714  164.0040 O.3     1  UNL1       -0.4563
     14 C         139.2097  145.2336  163.2576 C.3     1  UNL1        0.2542
     15 C         143.7528  142.2810  160.3129 C.ar    1  UNL1        0.1067
     16 C         143.1413  140.9203  160.4698 C.ar    1  UNL1        0.0252
     17 C         141.9502  140.7316  161.3617 C.ar    1  UNL1       -0.0003
     18 C         141.3704  141.9037  162.0967 C.ar    1  UNL1        0.0035
     19 C         141.9818  143.2644  161.9398 C.ar    1  UNL1        0.0955
     20 N         143.1730  143.4531  161.0478 N.ar    1  UNL1       -0.2380
     21 S         144.9440  142.4697  159.4210 S.3     1  UNL1       -0.0950
     22 C         145.9661  142.2049  157.0471 C.3     1  UNL1        0.0130
     23 C         144.7770  142.4408  157.9306 C.3     1  UNL1        0.0637
     24 C         138.9089  141.1433  162.4324 C.3     1  UNL1        0.1159
     25 O         138.8168  142.2875  161.4667 O.3     1  UNL1       -0.3820
     26 H         138.8339  141.9465  160.5588 H       1  UNL1        0.2107
     27 C         139.0010  139.9992  163.3980 C.ar    1  UNL1        0.0046
     28 C         139.9510  138.8690  163.1333 C.ar    1  UNL1       -0.0019
     29 C         140.0431  137.7248  164.0989 C.ar    1  UNL1        0.0021
     30 C         139.1853  137.7109  165.3293 C.ar    1  UNL1        0.0296
     31 C         138.2353  138.8412  165.5941 C.ar    1  UNL1        0.1399
     32 F         137.3774  138.8273  166.8245 F       1  UNL1       -0.2042
     33 C         138.1432  139.9853  164.6284 C.ar    1  UNL1        0.0276
     34 C         137.6385  140.5716  161.8762 C.3     1  UNL1        0.0491
     35 C         137.6941  139.5004  160.8277 C.3     1  UNL1        0.0750
     36 N         138.4661  139.7290  159.5621 N.3     1  UNL1       -0.2702
     37 C         139.7030  138.9277  159.2830 C.3     1  UNL1        0.0897
     38 C         138.0013  140.7589  158.5756 C.3     1  UNL1        0.0897
@<TRIPOS>BOND
     1    22    23    1
     2    23    21    1
     3    21    15    1
     4    15    16   ar
     5    16    17   ar
     6    17    18   ar
     7     1    18    1
     8     1     2    1
     9     2     3   ar
    10     3     4   ar
    11     4     5   ar
    12     5     6   ar
    13     6     7    1
    14     6     8   ar
    15     8     9   ar
    16     9    10   ar
    17    10    11   ar
    18    11    12   ar
    19    12    13    1
    20    13    14    1
    21     1    24    1
    22    24    25    1
    23    24    34    1
    24    34    35    1
    25    35    36    1
    26    36    37    1
    27    36    38    1
    28    24    27    1
    29    27    28   ar
    30    28    29   ar
    31    29    30   ar
    32    30    31   ar
    33    31    32    1
    34    31    33   ar
    35    18    19   ar
    36    19    20   ar
    37    20    15   ar
    38    12     2   ar
    39    33    27   ar
    40    10     4   ar
    41    25    26    1
@<TRIPOS>MOLECULE
*****
 38 41 0 0 0
SMALL
GASTEIGER

@<TRIPOS>ATOM
      1 C         142.1428  140.9905  163.5859 C.3     1  UNL1        0.0791
      2 C         142.0520  141.1991  165.0686 C.ar    1  UNL1        0.0374
      3 C         140.8729  140.6698  165.8297 C.ar    1  UNL1        0.0023
      4 C         140.7822  140.8784  167.3124 C.ar    1  UNL1        0.0181
      5 C         139.6030  140.3490  168.0735 C.ar    1  UNL1        0.0082
      6 C         139.5123  140.5576  169.5561 C.ar    1  UNL1        0.0347
      7 BR        138.3331  140.0282  170.3173 Br      1  UNL1       -0.0490
      8 C         140.6008  141.2956  170.2777 C.ar    1  UNL1        0.0082
      9 C         141.7800  141.8250  169.5166 C.ar    1  UNL1        0.0197
     10 C         141.8706  141.6163  168.0340 C.ar    1  UNL1        0.0844
     11 N         143.0498  142.1457  167.2728 N.ar    1  UNL1       -0.2119
     12 C         143.1405  141.9371  165.7902 C.ar    1  UNL1        0.2211
     13 O         144.3197  142.4665  165.0290 O.3     1  UNL1       -0.4563
     14 C         144.3293  143.8899  164.5558 C.3     1  UNL1        0.2542
     15 C         140.8058  144.2369  160.7710 C.ar    1  UNL1        0.1067
     16 C         139.9351  143.8405  161.9264 C.ar    1  UNL1        0.0252
     17 C         140.3808  142.7584  162.8647 C.ar    1  UNL1       -0.0003
     18 C         141.6971  142.0726  162.6477 C.ar    1  UNL1        0.0035
     19 C         142.5678  142.4690  161.4923 C.ar    1  UNL1        0.0955
     20 N         142.1221  143.5512  160.5540 N.ar    1  UNL1       -0.2380
     21 S         140.3602  145.3190  159.8327 S.3     1  UNL1       -0.0950
     22 C         140.3174  146.0800  157.3490 C.3     1  UNL1        0.0130
     23 C         141.0607  145.5089  158.5200 C.3     1  UNL1        0.0637
     24 C         142.6791  139.6998  163.0416 C.3     1  UNL1        0.1159
     25 O         144.0789  140.2163  163.1961 O.3     1  UNL1       -0.3820
     26 H         144.5712  139.6402  163.8016 H       1  UNL1        0.2107
     27 C         141.2794  139.1833  162.8870 C.ar    1  UNL1        0.0046
     28 C         140.5146  139.4551  161.6256 C.ar    1  UNL1       -0.0019
     29 C         139.1149  138.9386  161.4711 C.ar    1  UNL1        0.0021
     30 C         138.4799  138.1502  162.5780 C.ar    1  UNL1        0.0296
     31 C         139.2446  137.8784  163.8394 C.ar    1  UNL1        0.1399
     32 F         138.6096  137.0901  164.9464 F       1  UNL1       -0.2042
     33 C         140.6444  138.3950  163.9939 C.ar    1  UNL1        0.0276
     34 C         143.2155  138.4091  162.4972 C.3     1  UNL1        0.0491
     35 C         144.1366  138.4195  161.3134 C.3     1  UNL1        0.0750
     36 N         143.5905  138.6776  159.9404 N.3     1  UNL1       -0.2702
     37 C         142.7788  137.6246  159.2460 C.3     1  UNL1        0.0897
     38 C         143.8560  139.9887  159.2619 C.3     1  UNL1        0.0897
@<TRIPOS>BOND
     1    22    23    1
     2    23    21    1
     3    21    15    1
     4    15    16   ar
     5    16    17   ar
     6    17    18   ar
     7     1    18    1
     8     1     2    1
     9     2     3   ar
    10     3     4   ar
    11     4     5   ar
    12     5     6   ar
    13     6     7    1
    14     6     8   ar
    15     8     9   ar
    16     9    10   ar
    17    10    11   ar
    18    11    12   ar
    19    12    13    1
    20    13    14    1
    21     1    24    1
    22    24    25    1
    23    24    34    1
    24    34    35    1
    25    35    36    1
    26    36    37    1
    27    36    38    1
    28    24    27    1
    29    27    28   ar
    30    28    29   ar
    31    29    30   ar
    32    30    31   ar
    33    31    32    1
    34    31    33   ar
    35    18    19   ar
    36    19    20   ar
    37    20    15   ar
    38    12     2   ar
    39    33    27   ar
    40    10     4   ar
    41    25    26    1
