@<TRIPOS>MOLECULE
*****
 24 25 0 0 0
SMALL
GASTEIGER

@<TRIPOS>ATOM
      1 C         140.4390  140.5080  168.6710 C.ar    1  UNL1        0.0146
      2 C         139.8903  140.9997  169.9776 C.ar    1  UNL1        0.0369
      3 S         140.9376  140.7860  171.0300 S.2     1  UNL1       -0.0721
      4 C         142.1336  140.1623  170.3738 C.ar    1  UNL1        0.0782
      5 N         143.4131  139.7779  171.0558 N.pl3   1  UNL1       -0.3519
      6 C         141.8254  139.9904  168.9159 C.ar    1  UNL1        0.0952
      7 H         143.5211  139.9312  172.0222 H       1  UNL1        0.1428
      8 H         144.1449  139.3722  170.5369 H       1  UNL1        0.1428
      9 C         138.3011  140.5738  164.7118 C.ar    1  UNL1        0.1724
     10 C         138.1722  139.3825  165.6140 C.ar    1  UNL1        0.0400
     11 C         138.8848  139.3606  166.9338 C.ar    1  UNL1        0.0033
     12 C         139.7264  140.5299  167.3513 C.ar    1  UNL1        0.0040
     13 C         139.8553  141.7212  166.4490 C.ar    1  UNL1        0.0401
     14 C         139.1426  141.7432  165.1293 C.ar    1  UNL1        0.1724
     15 C         137.9387  139.5922  162.3338 C.3     1  UNL1        0.2526
     16 O         137.5885  140.5958  163.3921 O.3     1  UNL1       -0.4684
     17 O         139.2716  142.9346  164.2271 O.3     1  UNL1       -0.4684
     18 C         138.2411  144.0237  164.2710 C.3     1  UNL1        0.2526
     19 C         142.7427  139.4040  167.8840 C.2     1  UNL1        0.3428
     20 O         143.5039  138.1469  168.1848 O.2     1  UNL1       -0.2448
     21 O         142.8988  140.0745  166.5514 O.3     1  UNL1       -0.4492
     22 C         143.0064  139.2483  165.3041 C.3     1  UNL1        0.1694
     23 C         144.2462  139.3186  164.4626 C.3     1  UNL1        0.0473
     24 C         141.8744  138.3519  164.8982 C.3     1  UNL1        0.0473
@<TRIPOS>BOND
     1    15    16    1
     2    16     9    1
     3     9    10   ar
     4    10    11   ar
     5    11    12   ar
     6    12     1    1
     7     1     2   ar
     8     2     3   ar
     9     3     4   ar
    10     4     5    1
    11     4     6   ar
    12     6    19    1
    13    19    20    2
    14    19    21    1
    15    21    22    1
    16    22    23    1
    17    22    24    1
    18    12    13   ar
    19    13    14   ar
    20    14    17    1
    21    17    18    1
    22    14     9   ar
    23     6     1   ar
    24     5     7    1
    25     5     8    1
@<TRIPOS>MOLECULE
*****
 24 25 0 0 0
SMALL
GASTEIGER

@<TRIPOS>ATOM
      1 C         140.8429  142.0573  168.4309 C.ar    1  UNL1        0.0146
      2 C         141.4147  142.7150  169.6517 C.ar    1  UNL1        0.0369
      3 S         141.0774  141.8621  170.8387 S.2     1  UNL1       -0.0721
      4 C         140.2971  140.6774  170.3514 C.ar    1  UNL1        0.0782
      5 N         139.7566  139.5669  171.2028 N.pl3   1  UNL1       -0.3519
      6 C         140.1522  140.7980  168.8633 C.ar    1  UNL1        0.0952
      7 H         139.9043  139.5763  172.1761 H       1  UNL1        0.1428
      8 H         139.2542  138.8287  170.7882 H       1  UNL1        0.1428
      9 C         141.1463  143.5926  164.2118 C.ar    1  UNL1        0.1724
     10 C         142.2596  142.7728  164.7935 C.ar    1  UNL1        0.0400
     11 C         142.1585  142.2611  166.1998 C.ar    1  UNL1        0.0033
     12 C         140.9440  142.5691  167.0245 C.ar    1  UNL1        0.0040
     13 C         139.8307  143.3889  166.4428 C.ar    1  UNL1        0.0401
     14 C         139.9318  143.9006  165.0365 C.ar    1  UNL1        0.1724
     15 C         142.5930  144.3799  162.2025 C.3     1  UNL1        0.2526
     16 O         141.2474  144.1044  162.8054 O.3     1  UNL1       -0.4684
     17 O         138.8184  144.7205  164.4548 O.3     1  UNL1       -0.4684
     18 C         137.8278  144.0868  163.5237 C.3     1  UNL1        0.2526
     19 C         139.4413  139.8293  167.9654 C.2     1  UNL1        0.3428
     20 O         138.1761  139.1686  168.4268 O.2     1  UNL1       -0.2448
     21 O         139.9954  139.5214  166.6060 O.3     1  UNL1       -0.4492
     22 C         139.0655  139.2553  165.4595 C.3     1  UNL1        0.1694
     23 C         138.2548  140.3744  164.8761 C.3     1  UNL1        0.0473
     24 C         138.9462  137.8701  164.8965 C.3     1  UNL1        0.0473
@<TRIPOS>BOND
     1    15    16    1
     2    16     9    1
     3     9    10   ar
     4    10    11   ar
     5    11    12   ar
     6    12     1    1
     7     1     2   ar
     8     2     3   ar
     9     3     4   ar
    10     4     5    1
    11     4     6   ar
    12     6    19    1
    13    19    20    2
    14    19    21    1
    15    21    22    1
    16    22    23    1
    17    22    24    1
    18    12    13   ar
    19    13    14   ar
    20    14    17    1
    21    17    18    1
    22    14     9   ar
    23     6     1   ar
    24     5     7    1
    25     5     8    1
@<TRIPOS>MOLECULE
*****
 24 25 0 0 0
SMALL
GASTEIGER

@<TRIPOS>ATOM
      1 C         140.7153  142.1504  168.3791 C.ar    1  UNL1        0.0146
      2 C         141.2781  142.8460  169.5830 C.ar    1  UNL1        0.0369
      3 S         141.0095  141.9866  170.7827 S.2     1  UNL1       -0.0721
      4 C         140.2806  140.7599  170.3203 C.ar    1  UNL1        0.0782
      5 N         139.8152  139.6302  171.1905 N.pl3   1  UNL1       -0.3519
      6 C         140.0988  140.8612  168.8348 C.ar    1  UNL1        0.0952
      7 H         139.9824  139.6549  172.1604 H       1  UNL1        0.1428
      8 H         139.3426  138.8642  170.7918 H       1  UNL1        0.1428
      9 C         140.8522  143.6656  164.1441 C.ar    1  UNL1        0.1724
     10 C         139.6799  143.9935  165.0204 C.ar    1  UNL1        0.0400
     11 C         139.6342  143.4885  166.4321 C.ar    1  UNL1        0.0033
     12 C         140.7609  142.6555  166.9674 C.ar    1  UNL1        0.0040
     13 C         141.9333  142.3275  166.0911 C.ar    1  UNL1        0.0401
     14 C         141.9789  142.8326  164.6794 C.ar    1  UNL1        0.1724
     15 C         140.3916  145.5455  162.4110 C.3     1  UNL1        0.2526
     16 O         140.8979  144.1706  162.7324 O.3     1  UNL1       -0.4684
     17 O         143.1514  142.5046  163.8031 O.3     1  UNL1       -0.4684
     18 C         144.2393  143.5162  163.5962 C.3     1  UNL1        0.2526
     19 C         139.4197  139.8505  167.9588 C.2     1  UNL1        0.3428
     20 O         138.1821  139.1522  168.4395 O.2     1  UNL1       -0.2448
     21 O         139.9779  139.5381  166.6021 O.3     1  UNL1       -0.4492
     22 C         139.0523  139.2241  165.4643 C.3     1  UNL1        0.1694
     23 C         138.9343  137.8162  164.9602 C.3     1  UNL1        0.0473
     24 C         138.2448  140.3178  164.8305 C.3     1  UNL1        0.0473
@<TRIPOS>BOND
     1    15    16    1
     2    16     9    1
     3     9    10   ar
     4    10    11   ar
     5    11    12   ar
     6    12     1    1
     7     1     2   ar
     8     2     3   ar
     9     3     4   ar
    10     4     5    1
    11     4     6   ar
    12     6    19    1
    13    19    20    2
    14    19    21    1
    15    21    22    1
    16    22    23    1
    17    22    24    1
    18    12    13   ar
    19    13    14   ar
    20    14    17    1
    21    17    18    1
    22    14     9   ar
    23     6     1   ar
    24     5     7    1
    25     5     8    1
@<TRIPOS>MOLECULE
*****
 24 25 0 0 0
SMALL
GASTEIGER

@<TRIPOS>ATOM
      1 C         141.5216  140.3203  168.4867 C.ar    1  UNL1        0.0146
      2 C         141.9806  140.6656  169.8724 C.ar    1  UNL1        0.0369
      3 S         140.7907  140.6042  170.7837 S.2     1  UNL1       -0.0721
      4 C         139.5962  140.2211  169.9612 C.ar    1  UNL1        0.0782
      5 N         138.1959  140.0444  170.4690 N.pl3   1  UNL1       -0.3519
      6 C         140.0480  140.0456  168.5416 C.ar    1  UNL1        0.0952
      7 H         137.9973  140.1827  171.4233 H       1  UNL1        0.1428
      8 H         137.4755  139.7901  169.8481 H       1  UNL1        0.1428
      9 C         144.1107  140.1402  164.8106 C.ar    1  UNL1        0.1724
     10 C         143.7311  138.8761  165.5233 C.ar    1  UNL1        0.0400
     11 C         142.8680  138.9361  166.7486 C.ar    1  UNL1        0.0033
     12 C         142.3846  140.2603  167.2614 C.ar    1  UNL1        0.0040
     13 C         142.7642  141.5244  166.5487 C.ar    1  UNL1        0.0401
     14 C         143.6273  141.4643  165.3234 C.ar    1  UNL1        0.1724
     15 C         144.3432  139.9825  162.2278 C.3     1  UNL1        0.2526
     16 O         144.9738  140.0802  163.5853 O.3     1  UNL1       -0.4684
     17 O         144.0069  142.7285  164.6107 O.3     1  UNL1       -0.4684
     18 C         143.1000  143.2990  163.5610 C.3     1  UNL1        0.2526
     19 C         139.1787  139.6626  167.3807 C.2     1  UNL1        0.3428
     20 O         138.0102  138.7453  167.5892 O.2     1  UNL1       -0.2448
     21 O         139.4777  140.1968  166.0114 O.3     1  UNL1       -0.4492
     22 C         139.2397  139.3398  164.8035 C.3     1  UNL1        0.1694
     23 C         138.3268  139.8174  163.7133 C.3     1  UNL1        0.0473
     24 C         139.9145  138.0054  164.6859 C.3     1  UNL1        0.0473
@<TRIPOS>BOND
     1    15    16    1
     2    16     9    1
     3     9    10   ar
     4    10    11   ar
     5    11    12   ar
     6    12     1    1
     7     1     2   ar
     8     2     3   ar
     9     3     4   ar
    10     4     5    1
    11     4     6   ar
    12     6    19    1
    13    19    20    2
    14    19    21    1
    15    21    22    1
    16    22    23    1
    17    22    24    1
    18    12    13   ar
    19    13    14   ar
    20    14    17    1
    21    17    18    1
    22    14     9   ar
    23     6     1   ar
    24     5     7    1
    25     5     8    1
@<TRIPOS>MOLECULE
*****
 24 25 0 0 0
SMALL
GASTEIGER

@<TRIPOS>ATOM
      1 C         142.3527  141.3971  168.0858 C.ar    1  UNL1        0.0146
      2 C         142.0689  141.9098  169.4666 C.ar    1  UNL1        0.0369
      3 S         142.2114  140.7645  170.4247 S.2     1  UNL1       -0.0721
      4 C         142.5833  139.5439  169.6360 C.ar    1  UNL1        0.0782
      5 N         142.8254  138.1731  170.1947 N.pl3   1  UNL1       -0.3519
      6 C         142.6706  139.9349  168.1905 C.ar    1  UNL1        0.0952
      7 H         142.7435  138.0146  171.1629 H       1  UNL1        0.1428
      8 H         143.0661  137.4318  169.5932 H       1  UNL1        0.1428
      9 C         142.2657  143.8201  164.2948 C.ar    1  UNL1        0.1724
     10 C         143.5773  143.3744  164.8701 C.ar    1  UNL1        0.0400
     11 C         143.6063  142.5667  166.1337 C.ar    1  UNL1        0.0033
     12 C         142.3237  142.2048  166.8221 C.ar    1  UNL1        0.0040
     13 C         141.0121  142.6505  166.2469 C.ar    1  UNL1        0.0401
     14 C         140.9831  143.4582  164.9832 C.ar    1  UNL1        0.1724
     15 C         142.0913  143.9413  161.7054 C.3     1  UNL1        0.2526
     16 O         142.2366  144.6278  163.0312 O.3     1  UNL1       -0.4684
     17 O         139.6714  143.9039  164.4079 O.3     1  UNL1       -0.4684
     18 C         138.7238  144.7149  165.2412 C.3     1  UNL1        0.2526
     19 C         143.0153  139.0237  167.0500 C.2     1  UNL1        0.3428
     20 O         143.9815  137.8950  167.2573 O.2     1  UNL1       -0.2448
     21 O         142.3940  139.2409  165.7022 O.3     1  UNL1       -0.4492
     22 C         141.1209  138.5349  165.3405 C.3     1  UNL1        0.1694
     23 C         139.8011  139.0965  165.7795 C.3     1  UNL1        0.0473
     24 C         141.1676  137.2674  164.5398 C.3     1  UNL1        0.0473
@<TRIPOS>BOND
     1    15    16    1
     2    16     9    1
     3     9    10   ar
     4    10    11   ar
     5    11    12   ar
     6    12     1    1
     7     1     2   ar
     8     2     3   ar
     9     3     4   ar
    10     4     5    1
    11     4     6   ar
    12     6    19    1
    13    19    20    2
    14    19    21    1
    15    21    22    1
    16    22    23    1
    17    22    24    1
    18    12    13   ar
    19    13    14   ar
    20    14    17    1
    21    17    18    1
    22    14     9   ar
    23     6     1   ar
    24     5     7    1
    25     5     8    1
@<TRIPOS>MOLECULE
*****
 24 25 0 0 0
SMALL
GASTEIGER

@<TRIPOS>ATOM
      1 C         140.6430  140.7317  168.2017 C.ar    1  UNL1        0.0146
      2 C         140.0674  140.9636  169.5672 C.ar    1  UNL1        0.0369
      3 S         140.8691  140.1631  170.5504 S.2     1  UNL1       -0.0721
      4 C         141.9402  139.4364  169.7924 C.ar    1  UNL1        0.0782
      5 N         142.9703  138.5194  170.3823 N.pl3   1  UNL1       -0.3519
      6 C         141.8005  139.7879  168.3408 C.ar    1  UNL1        0.0952
      7 H         142.9811  138.3502  171.3521 H       1  UNL1        0.1428
      8 H         143.6355  138.0866  169.7997 H       1  UNL1        0.1428
      9 C         139.1583  142.5485  164.3618 C.ar    1  UNL1        0.1724
     10 C         140.0967  143.3191  165.2424 C.ar    1  UNL1        0.0400
     11 C         140.5917  142.7135  166.5224 C.ar    1  UNL1        0.0033
     12 C         140.1481  141.3373  166.9217 C.ar    1  UNL1        0.0040
     13 C         139.2097  140.5668  166.0411 C.ar    1  UNL1        0.0401
     14 C         138.7148  141.1724  164.7611 C.ar    1  UNL1        0.1724
     15 C         137.7120  144.3132  163.1192 C.3     1  UNL1        0.2526
     16 O         138.6634  143.1542  163.0818 O.3     1  UNL1       -0.4684
     17 O         137.7763  140.4018  163.8804 O.3     1  UNL1       -0.4684
     18 C         138.3165  139.5688  162.7561 C.3     1  UNL1        0.2526
     19 C         142.6664  139.2839  167.2244 C.2     1  UNL1        0.3428
     20 O         143.6810  138.2109  167.4879 O.2     1  UNL1       -0.2448
     21 O         142.5177  139.8528  165.8445 O.3     1  UNL1       -0.4492
     22 C         143.6956  140.4827  165.1620 C.3     1  UNL1        0.1694
     23 C         143.8744  141.9716  165.1962 C.3     1  UNL1        0.0473
     24 C         144.6947  139.6237  164.4452 C.3     1  UNL1        0.0473
@<TRIPOS>BOND
     1    15    16    1
     2    16     9    1
     3     9    10   ar
     4    10    11   ar
     5    11    12   ar
     6    12     1    1
     7     1     2   ar
     8     2     3   ar
     9     3     4   ar
    10     4     5    1
    11     4     6   ar
    12     6    19    1
    13    19    20    2
    14    19    21    1
    15    21    22    1
    16    22    23    1
    17    22    24    1
    18    12    13   ar
    19    13    14   ar
    20    14    17    1
    21    17    18    1
    22    14     9   ar
    23     6     1   ar
    24     5     7    1
    25     5     8    1
@<TRIPOS>MOLECULE
*****
 24 25 0 0 0
SMALL
GASTEIGER

@<TRIPOS>ATOM
      1 C         139.2055  141.2534  164.5685 C.ar    1  UNL1        0.0146
      2 C         138.3870  140.3763  163.6681 C.ar    1  UNL1        0.0369
      3 S         137.6533  141.2593  162.7027 S.2     1  UNL1       -0.0721
      4 C         138.0182  142.6821  163.0065 C.ar    1  UNL1        0.0782
      5 N         137.5127  143.8955  162.2840 N.pl3   1  UNL1       -0.3519
      6 C         138.9775  142.6784  164.1596 C.ar    1  UNL1        0.0952
      7 H         136.8816  143.7952  161.5351 H       1  UNL1        0.1428
      8 H         137.8120  144.7923  162.5587 H       1  UNL1        0.1428
      9 C         141.8757  139.8550  167.9098 C.ar    1  UNL1        0.1724
     10 C         142.4628  140.1900  166.5708 C.ar    1  UNL1        0.0400
     11 C         141.5727  140.6561  165.4570 C.ar    1  UNL1        0.0033
     12 C         140.0955  140.7872  165.6823 C.ar    1  UNL1        0.0040
     13 C         139.5085  140.4523  167.0213 C.ar    1  UNL1        0.0401
     14 C         140.3985  139.9861  168.1351 C.ar    1  UNL1        0.1724
     15 C         143.0200  140.2797  170.2034 C.3     1  UNL1        0.2526
     16 O         142.7658  139.3889  169.0236 O.3     1  UNL1       -0.4684
     17 O         139.8114  139.6511  169.4742 O.3     1  UNL1       -0.4684
     18 C         138.9921  140.6697  170.2099 C.3     1  UNL1        0.2526
     19 C         139.5997  143.8876  164.7927 C.2     1  UNL1        0.3428
     20 O         138.7316  144.9260  165.4397 O.2     1  UNL1       -0.2448
     21 O         141.0898  144.0586  164.7789 O.3     1  UNL1       -0.4492
     22 C         141.7403  144.8834  163.7082 C.3     1  UNL1        0.1694
     23 C         143.2221  145.1146  163.7358 C.3     1  UNL1        0.0473
     24 C         140.9089  145.4770  162.6098 C.3     1  UNL1        0.0473
@<TRIPOS>BOND
     1    15    16    1
     2    16     9    1
     3     9    10   ar
     4    10    11   ar
     5    11    12   ar
     6    12     1    1
     7     1     2   ar
     8     2     3   ar
     9     3     4   ar
    10     4     5    1
    11     4     6   ar
    12     6    19    1
    13    19    20    2
    14    19    21    1
    15    21    22    1
    16    22    23    1
    17    22    24    1
    18    12    13   ar
    19    13    14   ar
    20    14    17    1
    21    17    18    1
    22    14     9   ar
    23     6     1   ar
    24     5     7    1
    25     5     8    1
@<TRIPOS>MOLECULE
*****
 24 25 0 0 0
SMALL
GASTEIGER

@<TRIPOS>ATOM
      1 C         140.2119  141.2252  167.1477 C.ar    1  UNL1        0.0146
      2 C         139.4723  139.9969  166.7068 C.ar    1  UNL1        0.0369
      3 S         138.7675  139.4262  167.9016 S.2     1  UNL1       -0.0721
      4 C         139.0716  140.3017  169.0810 C.ar    1  UNL1        0.0782
      5 N         138.5708  140.1008  170.4806 N.pl3   1  UNL1       -0.3519
      6 C         139.9642  141.4135  168.6151 C.ar    1  UNL1        0.0952
      7 H         137.9861  139.3367  170.6893 H       1  UNL1        0.1428
      8 H         138.8269  140.7330  171.1905 H       1  UNL1        0.1428
      9 C         142.7313  143.8788  164.5284 C.ar    1  UNL1        0.1724
     10 C         143.3849  142.8537  165.4070 C.ar    1  UNL1        0.0400
     11 C         142.5451  141.9691  166.2801 C.ar    1  UNL1        0.0033
     12 C         141.0517  142.1097  166.2746 C.ar    1  UNL1        0.0040
     13 C         140.3982  143.1348  165.3960 C.ar    1  UNL1        0.0401
     14 C         141.2380  144.0194  164.5229 C.ar    1  UNL1        0.1724
     15 C         144.3881  144.1665  162.5480 C.3     1  UNL1        0.2526
     16 O         143.5711  144.7634  163.6553 O.3     1  UNL1       -0.4684
     17 O         140.5844  145.0446  163.6443 O.3     1  UNL1       -0.4684
     18 C         140.0754  144.6552  162.2882 C.3     1  UNL1        0.2526
     19 C         140.5128  142.5195  169.4670 C.2     1  UNL1        0.3428
     20 O         140.0680  143.9337  169.2381 O.2     1  UNL1       -0.2448
     21 O         141.5063  142.2115  170.5477 O.3     1  UNL1       -0.4492
     22 C         142.8033  141.5405  170.2052 C.3     1  UNL1        0.1694
     23 C         142.9327  140.0511  170.3284 C.3     1  UNL1        0.0473
     24 C         143.9710  142.3587  169.7395 C.3     1  UNL1        0.0473
@<TRIPOS>BOND
     1    15    16    1
     2    16     9    1
     3     9    10   ar
     4    10    11   ar
     5    11    12   ar
     6    12     1    1
     7     1     2   ar
     8     2     3   ar
     9     3     4   ar
    10     4     5    1
    11     4     6   ar
    12     6    19    1
    13    19    20    2
    14    19    21    1
    15    21    22    1
    16    22    23    1
    17    22    24    1
    18    12    13   ar
    19    13    14   ar
    20    14    17    1
    21    17    18    1
    22    14     9   ar
    23     6     1   ar
    24     5     7    1
    25     5     8    1
@<TRIPOS>MOLECULE
*****
 24 25 0 0 0
SMALL
GASTEIGER

@<TRIPOS>ATOM
      1 C         140.5201  143.3740  164.6807 C.ar    1  UNL1        0.0146
      2 C         139.5558  144.3934  164.1507 C.ar    1  UNL1        0.0369
      3 S         140.2085  145.0920  162.9948 S.2     1  UNL1       -0.0721
      4 C         141.5762  144.5043  162.8104 C.ar    1  UNL1        0.0782
      5 N         142.5758  144.9075  161.7673 N.pl3   1  UNL1       -0.3519
      6 C         141.7687  143.4425  163.8523 C.ar    1  UNL1        0.0952
      7 H         142.3558  145.6193  161.1237 H       1  UNL1        0.1428
      8 H         143.4519  144.4603  161.7262 H       1  UNL1        0.1428
      9 C         139.7944  140.5976  168.1470 C.ar    1  UNL1        0.1724
     10 C         140.5158  141.8948  168.3634 C.ar    1  UNL1        0.0400
     11 C         140.7577  142.8203  167.2079 C.ar    1  UNL1        0.0033
     12 C         140.2782  142.4485  165.8361 C.ar    1  UNL1        0.0040
     13 C         139.5568  141.1514  165.6198 C.ar    1  UNL1        0.0401
     14 C         139.3149  140.2259  166.7752 C.ar    1  UNL1        0.1724
     15 C         140.1190  139.9950  170.6533 C.3     1  UNL1        0.2526
     16 O         139.5525  139.6722  169.3024 O.3     1  UNL1       -0.4684
     17 O         138.5934  138.9287  166.5588 O.3     1  UNL1       -0.4684
     18 C         138.8755  138.1087  165.3349 C.3     1  UNL1        0.2526
     19 C         142.9947  142.5975  164.0340 C.2     1  UNL1        0.3428
     20 O         144.2902  143.2337  164.4433 O.2     1  UNL1       -0.2448
     21 O         142.9255  141.1166  163.8064 O.3     1  UNL1       -0.4492
     22 C         143.6312  140.1801  164.7419 C.3     1  UNL1        0.1694
     23 C         143.0187  139.8429  166.0689 C.3     1  UNL1        0.0473
     24 C         144.9493  139.5809  164.3503 C.3     1  UNL1        0.0473
@<TRIPOS>BOND
     1    15    16    1
     2    16     9    1
     3     9    10   ar
     4    10    11   ar
     5    11    12   ar
     6    12     1    1
     7     1     2   ar
     8     2     3   ar
     9     3     4   ar
    10     4     5    1
    11     4     6   ar
    12     6    19    1
    13    19    20    2
    14    19    21    1
    15    21    22    1
    16    22    23    1
    17    22    24    1
    18    12    13   ar
    19    13    14   ar
    20    14    17    1
    21    17    18    1
    22    14     9   ar
    23     6     1   ar
    24     5     7    1
    25     5     8    1
