@<TRIPOS>MOLECULE
*****
 32 35 0 0 0
SMALL
GASTEIGER

@<TRIPOS>ATOM
      1 C         142.2177  140.2004  164.2752 C.2     1  UNL1        0.1397
      2 C         142.7045  140.5152  162.8918 C.2     1  UNL1        0.1355
      3 N         142.2428  141.7636  162.2002 N.pl3   1  UNL1       -0.2011
      4 C         141.2943  142.6972  162.8920 C.2     1  UNL1        0.3262
      5 N         140.8074  142.3824  164.2754 N.2     1  UNL1       -0.0595
      6 C         141.2691  141.1340  164.9670 C.3     1  UNL1        0.2691
      7 H         142.5624  141.9702  161.2922 H       1  UNL1        0.2982
      8 C         140.7822  140.8192  166.3505 C.ar    1  UNL1        0.0371
      9 C         139.5216  140.0287  166.5401 C.ar    1  UNL1        0.0030
     10 C         139.0347  139.7139  167.9235 C.ar    1  UNL1        0.0295
     11 C         139.8084  140.1896  169.1173 C.ar    1  UNL1        0.1406
     12 F         139.3214  139.8748  170.5007 F       1  UNL1       -0.2042
     13 C         141.0690  140.9801  168.9277 C.ar    1  UNL1        0.0362
     14 C         141.5559  141.2949  167.5442 C.ar    1  UNL1        0.0372
     15 BR        142.8165  142.0855  167.3546 Br      1  UNL1       -0.0491
     16 C         140.8326  143.9456  162.2004 C.ar    1  UNL1        0.1115
     17 C         140.1978  145.1347  162.8584 C.ar    1  UNL1        0.0144
     18 C         139.8975  146.1482  161.7940 C.ar    1  UNL1        0.0077
     19 C         140.3468  145.5854  160.4782 C.ar    1  UNL1        0.0357
     20 S         140.9247  144.2241  160.7294 S.2     1  UNL1       -0.0792
     21 C         142.6793  138.9520  164.9668 C.2     1  UNL1        0.3447
     22 O         144.0230  138.9166  165.6326 O.2     1  UNL1       -0.2450
     23 O         141.7974  137.7390  164.9926 O.3     1  UNL1       -0.4455
     24 C         139.6096  137.6600  163.5935 C.3     1  UNL1        0.0513
     25 C         141.0618  137.3200  163.7544 C.3     1  UNL1        0.2089
     26 C         143.6531  139.5816  162.2000 C.3     1  UNL1        0.1405
     27 N         143.4885  139.2933  160.7372 N.3     1  UNL1       -0.2617
     28 C         143.9082  140.3126  159.7200 C.3     1  UNL1        0.1050
     29 C         143.7436  140.0242  158.2571 C.3     1  UNL1        0.1595
     30 O         143.1592  138.7166  157.8116 O.3     1  UNL1       -0.3508
     31 C         142.7395  137.6972  158.8289 C.3     1  UNL1        0.1595
     32 C         142.9041  137.9856  160.2916 C.3     1  UNL1        0.1050
@<TRIPOS>BOND
     1    24    25    1
     2    25    23    1
     3    23    21    1
     4    21    22    2
     5    21     1    1
     6     1     2    2
     7     2    26    1
     8    26    27    1
     9    27    28    1
    10    28    29    1
    11    29    30    1
    12    30    31    1
    13    31    32    1
    14     2     3    1
    15     3     4    1
    16     4    16    1
    17    16    17   ar
    18    17    18   ar
    19    18    19   ar
    20    19    20   ar
    21     4     5    2
    22     5     6    1
    23     6     8    1
    24     8     9   ar
    25     9    10   ar
    26    10    11   ar
    27    11    12    1
    28    11    13   ar
    29    13    14   ar
    30    14    15    1
    31     6     1    1
    32    14     8   ar
    33    32    27    1
    34    20    16   ar
    35     3     7    1
@<TRIPOS>MOLECULE
*****
 32 35 0 0 0
SMALL
GASTEIGER

@<TRIPOS>ATOM
      1 C         140.6931  140.3166  164.5642 C.2     1  UNL1        0.1397
      2 C         140.3878  140.2512  163.0971 C.2     1  UNL1        0.1355
      3 N         140.2058  141.5162  162.3118 N.pl3   1  UNL1       -0.2011
      4 C         140.3292  142.8465  162.9935 C.2     1  UNL1        0.3262
      5 N         140.6345  142.9119  164.4606 N.2     1  UNL1       -0.0595
      6 C         140.8165  141.6470  165.2459 C.3     1  UNL1        0.2691
      7 H         140.0054  141.4733  161.3488 H       1  UNL1        0.2982
      8 C         141.1219  141.7124  166.7131 C.ar    1  UNL1        0.0371
      9 C         140.0496  141.4075  167.7167 C.ar    1  UNL1        0.0030
     10 C         140.3549  141.4729  169.1838 C.ar    1  UNL1        0.0295
     11 C         141.7326  141.8432  169.6474 C.ar    1  UNL1        0.1406
     12 F         142.0379  141.9087  171.1145 F       1  UNL1       -0.2042
     13 C         142.8049  142.1481  168.6438 C.ar    1  UNL1        0.0362
     14 C         142.4995  142.0827  167.1767 C.ar    1  UNL1        0.0372
     15 BR        143.5719  142.3876  166.1731 Br      1  UNL1       -0.0491
     16 C         140.1472  144.1115  162.2082 C.ar    1  UNL1        0.1115
     17 C         139.5898  145.4019  162.7318 C.ar    1  UNL1        0.0144
     18 C         139.5888  146.3961  161.6086 C.ar    1  UNL1        0.0077
     19 C         140.1456  145.7202  160.3908 C.ar    1  UNL1        0.0357
     20 S         140.4907  144.3082  160.7614 S.2     1  UNL1       -0.0792
     21 C         140.8751  139.0516  165.3495 C.2     1  UNL1        0.3447
     22 O         142.2399  138.6576  165.8311 O.2     1  UNL1       -0.2450
     23 O         139.6923  138.1807  165.6532 O.3     1  UNL1       -0.4455
     24 C         137.5788  138.5098  167.1281 C.3     1  UNL1        0.0513
     25 C         138.3423  138.7978  165.8693 C.3     1  UNL1        0.2089
     26 C         140.2643  138.9208  162.4152 C.3     1  UNL1        0.1405
     27 N         141.2427  138.5320  161.3468 N.3     1  UNL1       -0.2617
     28 C         142.5989  138.0141  161.7242 C.3     1  UNL1        0.1050
     29 C         143.5773  137.6253  160.6556 C.3     1  UNL1        0.1595
     30 O         143.1994  137.7544  159.2098 O.3     1  UNL1       -0.3508
     31 C         141.8432  138.2723  158.8324 C.3     1  UNL1        0.1595
     32 C         140.8649  138.6611  159.9008 C.3     1  UNL1        0.1050
@<TRIPOS>BOND
     1    24    25    1
     2    25    23    1
     3    23    21    1
     4    21    22    2
     5    21     1    1
     6     1     2    2
     7     2    26    1
     8    26    27    1
     9    27    28    1
    10    28    29    1
    11    29    30    1
    12    30    31    1
    13    31    32    1
    14     2     3    1
    15     3     4    1
    16     4    16    1
    17    16    17   ar
    18    17    18   ar
    19    18    19   ar
    20    19    20   ar
    21     4     5    2
    22     5     6    1
    23     6     8    1
    24     8     9   ar
    25     9    10   ar
    26    10    11   ar
    27    11    12    1
    28    11    13   ar
    29    13    14   ar
    30    14    15    1
    31     6     1    1
    32    14     8   ar
    33    32    27    1
    34    20    16   ar
    35     3     7    1
@<TRIPOS>MOLECULE
*****
 32 35 0 0 0
SMALL
GASTEIGER

@<TRIPOS>ATOM
      1 C         139.1785  141.5267  160.7990 C.2     1  UNL1        0.1397
      2 C         139.3161  140.9534  159.4198 C.2     1  UNL1        0.1355
      3 N         139.4914  141.8659  158.2422 N.pl3   1  UNL1       -0.2011
      4 C         139.5291  143.3518  158.4439 C.2     1  UNL1        0.3262
      5 N         139.3915  143.9251  159.8231 N.2     1  UNL1       -0.0595
      6 C         139.2162  143.0126  161.0007 C.3     1  UNL1        0.2691
      7 H         139.5817  141.4896  157.3370 H       1  UNL1        0.2982
      8 C         139.0786  143.5860  162.3799 C.ar    1  UNL1        0.0371
      9 C         137.7192  143.7449  162.9939 C.ar    1  UNL1        0.0030
     10 C         137.5816  144.3182  164.3731 C.ar    1  UNL1        0.0295
     11 C         138.8033  144.7328  165.1384 C.ar    1  UNL1        0.1406
     12 F         138.6657  145.3062  166.5176 F       1  UNL1       -0.2042
     13 C         140.1627  144.5740  164.5244 C.ar    1  UNL1        0.0362
     14 C         140.3003  144.0006  163.1451 C.ar    1  UNL1        0.0372
     15 BR        141.6596  143.8417  162.5311 Br      1  UNL1       -0.0491
     16 C         139.7044  144.2643  157.2664 C.ar    1  UNL1        0.1115
     17 C         139.0727  144.0933  155.9167 C.ar    1  UNL1        0.0144
     18 C         139.5200  145.2314  155.0479 C.ar    1  UNL1        0.0077
     19 C         140.4283  146.1057  155.8607 C.ar    1  UNL1        0.0357
     20 S         140.5422  145.5080  157.2318 S.2     1  UNL1       -0.0792
     21 C         139.0032  140.6142  161.9765 C.2     1  UNL1        0.3447
     22 O         137.6510  140.0454  162.2898 O.2     1  UNL1       -0.2450
     23 O         140.1799  140.2705  162.8408 O.3     1  UNL1       -0.4455
     24 C         139.4008  140.9950  165.2111 C.3     1  UNL1        0.0513
     25 C         139.9775  139.9576  164.2937 C.3     1  UNL1        0.2089
     26 C         139.2783  139.4674  159.2180 C.3     1  UNL1        0.1405
     27 N         140.5387  138.7227  158.8913 N.3     1  UNL1       -0.2617
     28 C         141.6040  138.5574  159.9344 C.3     1  UNL1        0.1050
     29 C         142.8644  137.8126  159.6076 C.3     1  UNL1        0.1595
     30 O         143.0595  137.2331  158.2379 O.3     1  UNL1       -0.3508
     31 C         141.9943  137.3985  157.1949 C.3     1  UNL1        0.1595
     32 C         140.7339  138.1432  157.5215 C.3     1  UNL1        0.1050
@<TRIPOS>BOND
     1    24    25    1
     2    25    23    1
     3    23    21    1
     4    21    22    2
     5    21     1    1
     6     1     2    2
     7     2    26    1
     8    26    27    1
     9    27    28    1
    10    28    29    1
    11    29    30    1
    12    30    31    1
    13    31    32    1
    14     2     3    1
    15     3     4    1
    16     4    16    1
    17    16    17   ar
    18    17    18   ar
    19    18    19   ar
    20    19    20   ar
    21     4     5    2
    22     5     6    1
    23     6     8    1
    24     8     9   ar
    25     9    10   ar
    26    10    11   ar
    27    11    12    1
    28    11    13   ar
    29    13    14   ar
    30    14    15    1
    31     6     1    1
    32    14     8   ar
    33    32    27    1
    34    20    16   ar
    35     3     7    1
@<TRIPOS>MOLECULE
*****
 32 35 0 0 0
SMALL
GASTEIGER

@<TRIPOS>ATOM
      1 C         141.9765  143.5622  160.0136 C.2     1  UNL1        0.1397
      2 C         142.8036  143.6253  158.7638 C.2     1  UNL1        0.1355
      3 N         142.3304  144.4323  157.5913 N.pl3   1  UNL1       -0.2011
      4 C         141.0302  145.1761  157.6685 C.2     1  UNL1        0.3262
      5 N         140.2031  145.1131  158.9182 N.2     1  UNL1       -0.0595
      6 C         140.6763  144.3061  160.0908 C.3     1  UNL1        0.2691
      7 H         142.8732  144.4737  156.7710 H       1  UNL1        0.2982
      8 C         139.8492  144.2430  161.3406 C.ar    1  UNL1        0.0371
      9 C         140.1201  145.1946  162.4680 C.ar    1  UNL1        0.0030
     10 C         139.2930  145.1316  163.7178 C.ar    1  UNL1        0.0295
     11 C         138.1950  144.1170  163.8402 C.ar    1  UNL1        0.1406
     12 F         137.3680  144.0539  165.0900 F       1  UNL1       -0.2042
     13 C         137.9241  143.1654  162.7128 C.ar    1  UNL1        0.0362
     14 C         138.7512  143.2284  161.4630 C.ar    1  UNL1        0.0372
     15 BR        138.4803  142.2768  160.3355 Br      1  UNL1       -0.0491
     16 C         140.5570  145.9831  156.4959 C.ar    1  UNL1        0.1115
     17 C         139.4566  147.0023  156.5135 C.ar    1  UNL1        0.0144
     18 C         139.3206  147.5617  155.1283 C.ar    1  UNL1        0.0077
     19 C         140.3370  146.8882  154.2546 C.ar    1  UNL1        0.0357
     20 S         141.1011  145.9126  155.0999 S.2     1  UNL1       -0.0792
     21 C         142.4497  142.7552  161.1862 C.2     1  UNL1        0.3447
     22 O         141.8355  141.4171  161.4726 O.2     1  UNL1       -0.2450
     23 O         143.5371  143.2864  162.0723 O.3     1  UNL1       -0.4455
     24 C         143.5247  145.0632  163.9678 C.3     1  UNL1        0.0513
     25 C         143.2288  143.6729  163.4885 C.3     1  UNL1        0.2089
     26 C         144.1039  142.8814  158.6866 C.3     1  UNL1        0.1405
     27 N         144.2050  141.6312  157.8639 N.3     1  UNL1       -0.2617
     28 C         145.2614  141.5131  156.8057 C.3     1  UNL1        0.1050
     29 C         145.3625  140.2628  155.9830 C.3     1  UNL1        0.1595
     30 O         144.4071  139.1307  156.2187 O.3     1  UNL1       -0.3508
     31 C         143.3507  139.2488  157.2770 C.3     1  UNL1        0.1595
     32 C         143.2496  140.4990  158.0996 C.3     1  UNL1        0.1050
@<TRIPOS>BOND
     1    24    25    1
     2    25    23    1
     3    23    21    1
     4    21    22    2
     5    21     1    1
     6     1     2    2
     7     2    26    1
     8    26    27    1
     9    27    28    1
    10    28    29    1
    11    29    30    1
    12    30    31    1
    13    31    32    1
    14     2     3    1
    15     3     4    1
    16     4    16    1
    17    16    17   ar
    18    17    18   ar
    19    18    19   ar
    20    19    20   ar
    21     4     5    2
    22     5     6    1
    23     6     8    1
    24     8     9   ar
    25     9    10   ar
    26    10    11   ar
    27    11    12    1
    28    11    13   ar
    29    13    14   ar
    30    14    15    1
    31     6     1    1
    32    14     8   ar
    33    32    27    1
    34    20    16   ar
    35     3     7    1
@<TRIPOS>MOLECULE
*****
 32 35 0 0 0
SMALL
GASTEIGER

@<TRIPOS>ATOM
      1 C         139.8978  141.1700  160.8425 C.2     1  UNL1        0.1397
      2 C         140.0603  140.4260  159.5502 C.2     1  UNL1        0.1355
      3 N         139.4119  140.9432  158.3004 N.pl3   1  UNL1       -0.2011
      4 C         138.6011  142.2044  158.3428 C.2     1  UNL1        0.3262
      5 N         138.4385  142.9484  159.6351 N.2     1  UNL1       -0.0595
      6 C         139.0869  142.4311  160.8849 C.3     1  UNL1        0.2691
      7 H         139.5186  140.4549  157.4522 H       1  UNL1        0.2982
      8 C         138.9244  143.1752  162.1773 C.ar    1  UNL1        0.0371
      9 C         137.7991  142.8278  163.1062 C.ar    1  UNL1        0.0030
     10 C         137.6365  143.5718  164.3985 C.ar    1  UNL1        0.0295
     11 C         138.5993  144.6632  164.7619 C.ar    1  UNL1        0.1406
     12 F         138.4367  145.4072  166.0542 F       1  UNL1       -0.2042
     13 C         139.7246  145.0106  163.8329 C.ar    1  UNL1        0.0362
     14 C         139.8871  144.2665  162.5406 C.ar    1  UNL1        0.0372
     15 BR        141.0124  144.6139  161.6116 Br      1  UNL1       -0.0491
     16 C         137.9527  142.7216  157.0930 C.ar    1  UNL1        0.1115
     17 C         138.3714  143.9374  156.3207 C.ar    1  UNL1        0.0144
     18 C         137.4493  144.0811  155.1464 C.ar    1  UNL1        0.0077
     19 C         136.4606  142.9540  155.1929 C.ar    1  UNL1        0.0357
     20 S         136.7717  142.1138  156.3959 S.2     1  UNL1       -0.0792
     21 C         140.5462  140.6528  162.0923 C.2     1  UNL1        0.3447
     22 O         141.8658  141.2093  162.5381 O.2     1  UNL1       -0.2450
     23 O         139.8749  139.5790  162.8963 O.3     1  UNL1       -0.4455
     24 C         137.9744  138.1645  161.8300 C.3     1  UNL1        0.0513
     25 C         138.4134  139.3014  162.7045 C.3     1  UNL1        0.2089
     26 C         140.8712  139.1648  159.5077 C.3     1  UNL1        0.1405
     27 N         141.9246  138.9855  158.4550 N.3     1  UNL1       -0.2617
     28 C         142.8870  140.0976  158.1599 C.3     1  UNL1        0.1050
     29 C         143.9404  139.9182  157.1071 C.3     1  UNL1        0.1595
     30 O         144.0313  138.6269  156.3494 O.3     1  UNL1       -0.3508
     31 C         143.0689  137.5148  156.6445 C.3     1  UNL1        0.1595
     32 C         142.0156  137.6941  157.6973 C.3     1  UNL1        0.1050
@<TRIPOS>BOND
     1    24    25    1
     2    25    23    1
     3    23    21    1
     4    21    22    2
     5    21     1    1
     6     1     2    2
     7     2    26    1
     8    26    27    1
     9    27    28    1
    10    28    29    1
    11    29    30    1
    12    30    31    1
    13    31    32    1
    14     2     3    1
    15     3     4    1
    16     4    16    1
    17    16    17   ar
    18    17    18   ar
    19    18    19   ar
    20    19    20   ar
    21     4     5    2
    22     5     6    1
    23     6     8    1
    24     8     9   ar
    25     9    10   ar
    26    10    11   ar
    27    11    12    1
    28    11    13   ar
    29    13    14   ar
    30    14    15    1
    31     6     1    1
    32    14     8   ar
    33    32    27    1
    34    20    16   ar
    35     3     7    1
@<TRIPOS>MOLECULE
*****
 32 35 0 0 0
SMALL
GASTEIGER

@<TRIPOS>ATOM
      1 C         140.0100  142.8314  160.0175 C.2     1  UNL1        0.1397
      2 C         139.1555  142.5820  158.8102 C.2     1  UNL1        0.1355
      3 N         139.1734  143.5511  157.6655 N.pl3   1  UNL1       -0.2011
      4 C         140.0458  144.7697  157.7280 C.2     1  UNL1        0.3262
      5 N         140.9003  145.0191  158.9353 N.2     1  UNL1       -0.0595
      6 C         140.8825  144.0499  160.0800 C.3     1  UNL1        0.2691
      7 H         138.6125  143.3874  156.8731 H       1  UNL1        0.2982
      8 C         141.7371  144.2993  161.2873 C.ar    1  UNL1        0.0371
      9 C         141.2113  145.1312  162.4194 C.ar    1  UNL1        0.0030
     10 C         142.0659  145.3806  163.6267 C.ar    1  UNL1        0.0295
     11 C         143.4462  144.7982  163.7019 C.ar    1  UNL1        0.1406
     12 F         144.3007  145.0477  164.9091 F       1  UNL1       -0.2042
     13 C         143.9719  143.9664  162.5697 C.ar    1  UNL1        0.0362
     14 C         143.1173  143.7170  161.3624 C.ar    1  UNL1        0.0372
     15 BR        143.6431  142.8852  160.2303 Br      1  UNL1       -0.0491
     16 C         140.0637  145.7389  156.5833 C.ar    1  UNL1        0.1115
     17 C         139.2956  147.0249  156.5048 C.ar    1  UNL1        0.0144
     18 C         139.6100  147.6730  155.1890 C.ar    1  UNL1        0.0077
     19 C         140.5724  146.7875  154.4544 C.ar    1  UNL1        0.0357
     20 S         140.8528  145.5922  155.3161 S.2     1  UNL1       -0.0792
     21 C         139.9922  141.8622  161.1622 C.2     1  UNL1        0.3447
     22 O         140.8125  140.6082  161.0961 O.2     1  UNL1       -0.2450
     23 O         139.1539  142.1470  162.3730 O.3     1  UNL1       -0.4455
     24 C         137.7198  144.1813  163.1182 C.3     1  UNL1        0.0513
     25 C         137.9101  142.9757  162.2461 C.3     1  UNL1        0.2089
     26 C         138.2830  141.3634  158.7476 C.3     1  UNL1        0.1405
     27 N         137.9466  140.7491  157.4212 N.3     1  UNL1       -0.2617
     28 C         138.9294  139.8399  156.7449 C.3     1  UNL1        0.1050
     29 C         138.5929  139.2256  155.4183 C.3     1  UNL1        0.1595
     30 O         137.2737  139.5207  154.7682 O.3     1  UNL1       -0.3508
     31 C         136.2910  140.4299  155.4445 C.3     1  UNL1        0.1595
     32 C         136.6274  141.0442  156.7710 C.3     1  UNL1        0.1050
@<TRIPOS>BOND
     1    24    25    1
     2    25    23    1
     3    23    21    1
     4    21    22    2
     5    21     1    1
     6     1     2    2
     7     2    26    1
     8    26    27    1
     9    27    28    1
    10    28    29    1
    11    29    30    1
    12    30    31    1
    13    31    32    1
    14     2     3    1
    15     3     4    1
    16     4    16    1
    17    16    17   ar
    18    17    18   ar
    19    18    19   ar
    20    19    20   ar
    21     4     5    2
    22     5     6    1
    23     6     8    1
    24     8     9   ar
    25     9    10   ar
    26    10    11   ar
    27    11    12    1
    28    11    13   ar
    29    13    14   ar
    30    14    15    1
    31     6     1    1
    32    14     8   ar
    33    32    27    1
    34    20    16   ar
    35     3     7    1
@<TRIPOS>MOLECULE
*****
 32 35 0 0 0
SMALL
GASTEIGER

@<TRIPOS>ATOM
      1 C         143.0529  140.4311  160.0384 C.2     1  UNL1        0.1397
      2 C         143.3623  139.4200  158.9745 C.2     1  UNL1        0.1355
      3 N         144.2507  139.7899  157.8239 N.pl3   1  UNL1       -0.2011
      4 C         144.8297  141.1709  157.7372 C.2     1  UNL1        0.3262
      5 N         144.5203  142.1820  158.8011 N.2     1  UNL1       -0.0595
      6 C         143.6319  141.8121  159.9517 C.3     1  UNL1        0.2691
      7 H         144.4537  139.1263  157.1256 H       1  UNL1        0.2982
      8 C         143.3225  142.8233  161.0157 C.ar    1  UNL1        0.0371
      9 C         144.1886  142.9158  162.2369 C.ar    1  UNL1        0.0030
     10 C         143.8792  143.9269  163.3008 C.ar    1  UNL1        0.0295
     11 C         142.7038  144.8456  163.1435 C.ar    1  UNL1        0.1406
     12 F         142.3945  145.8567  164.2074 F       1  UNL1       -0.2042
     13 C         141.8378  144.7530  161.9223 C.ar    1  UNL1        0.0362
     14 C         142.1472  143.7418  160.8583 C.ar    1  UNL1        0.0372
     15 BR        141.2812  143.6493  159.6371 Br      1  UNL1       -0.0491
     16 C         145.7181  141.5408  156.5866 C.ar    1  UNL1        0.1115
     17 C         146.9154  142.4420  156.6513 C.ar    1  UNL1        0.0144
     18 C         147.5025  142.5327  155.2740 C.ar    1  UNL1        0.0077
     19 C         146.6680  141.6874  154.3579 C.ar    1  UNL1        0.0357
     20 S         145.5652  141.0745  155.1692 S.2     1  UNL1       -0.0792
     21 C         142.1645  140.0612  161.1890 C.2     1  UNL1        0.3447
     22 O         140.7203  140.4664  161.1820 O.2     1  UNL1       -0.2450
     23 O         142.7203  139.2861  162.3467 O.3     1  UNL1       -0.4455
     24 C         144.7337  139.6482  163.9483 C.3     1  UNL1        0.0513
     25 C         144.1989  139.2710  162.5985 C.3     1  UNL1        0.2089
     26 C         142.7832  138.0390  159.0612 C.3     1  UNL1        0.1405
     27 N         142.0543  137.4563  157.8869 N.3     1  UNL1       -0.2617
     28 C         142.7035  136.3902  157.0549 C.3     1  UNL1        0.1050
     29 C         141.9745  135.8075  155.8805 C.3     1  UNL1        0.1595
     30 O         140.5964  136.2908  155.5382 O.3     1  UNL1       -0.3508
     31 C         139.9473  137.3569  156.3701 C.3     1  UNL1        0.1595
     32 C         140.6762  137.9396  157.5445 C.3     1  UNL1        0.1050
@<TRIPOS>BOND
     1    24    25    1
     2    25    23    1
     3    23    21    1
     4    21    22    2
     5    21     1    1
     6     1     2    2
     7     2    26    1
     8    26    27    1
     9    27    28    1
    10    28    29    1
    11    29    30    1
    12    30    31    1
    13    31    32    1
    14     2     3    1
    15     3     4    1
    16     4    16    1
    17    16    17   ar
    18    17    18   ar
    19    18    19   ar
    20    19    20   ar
    21     4     5    2
    22     5     6    1
    23     6     8    1
    24     8     9   ar
    25     9    10   ar
    26    10    11   ar
    27    11    12    1
    28    11    13   ar
    29    13    14   ar
    30    14    15    1
    31     6     1    1
    32    14     8   ar
    33    32    27    1
    34    20    16   ar
    35     3     7    1
@<TRIPOS>MOLECULE
*****
 32 35 0 0 0
SMALL
GASTEIGER

@<TRIPOS>ATOM
      1 C         142.8938  143.2476  159.9546 C.2     1  UNL1        0.1397
      2 C         142.5794  143.9826  158.6854 C.2     1  UNL1        0.1355
      3 N         143.3171  143.6486  157.4228 N.pl3   1  UNL1       -0.2011
      4 C         144.3692  142.5795  157.4294 C.2     1  UNL1        0.3262
      5 N         144.6836  141.8445  158.6985 N.2     1  UNL1       -0.0595
      6 C         143.9459  142.1785  159.9612 C.3     1  UNL1        0.2691
      7 H         143.1107  144.1310  156.5898 H       1  UNL1        0.2982
      8 C         144.2604  141.4434  161.2304 C.ar    1  UNL1        0.0371
      9 C         145.2145  142.0369  162.2241 C.ar    1  UNL1        0.0030
     10 C         145.5290  141.3019  163.4932 C.ar    1  UNL1        0.0295
     11 C         144.8893  139.9733  163.7688 C.ar    1  UNL1        0.1406
     12 F         145.2037  139.2383  165.0379 F       1  UNL1       -0.2042
     13 C         143.9351  139.3799  162.7751 C.ar    1  UNL1        0.0362
     14 C         143.6207  140.1150  161.5058 C.ar    1  UNL1        0.0372
     15 BR        142.6666  139.5215  160.5121 Br      1  UNL1       -0.0491
     16 C         145.1069  142.2454  156.1668 C.ar    1  UNL1        0.1115
     17 C         146.5952  142.2727  155.9816 C.ar    1  UNL1        0.0144
     18 C         146.8940  141.8696  154.5680 C.ar    1  UNL1        0.0077
     19 C         145.5903  141.5932  153.8795 C.ar    1  UNL1        0.0357
     20 S         144.4859  141.8255  154.8676 S.2     1  UNL1       -0.0792
     21 C         142.1561  143.5817  161.2172 C.2     1  UNL1        0.3447
     22 O         141.0184  142.7166  161.6723 O.2     1  UNL1       -0.2450
     23 O         142.5562  144.7808  162.0247 O.3     1  UNL1       -0.4455
     24 C         143.8624  144.7924  164.2705 C.3     1  UNL1        0.0513
     25 C         142.5647  144.7072  163.5229 C.3     1  UNL1        0.2089
     26 C         141.5273  145.0518  158.6788 C.3     1  UNL1        0.1405
     27 N         140.4638  145.0509  157.6211 N.3     1  UNL1       -0.2617
     28 C         139.6791  143.8022  157.3474 C.3     1  UNL1        0.1050
     29 C         138.6156  143.8014  156.2895 C.3     1  UNL1        0.1595
     30 O         138.3367  145.0493  155.5054 O.3     1  UNL1       -0.3508
     31 C         139.1214  146.2981  155.7791 C.3     1  UNL1        0.1595
     32 C         140.1849  146.2989  156.8369 C.3     1  UNL1        0.1050
@<TRIPOS>BOND
     1    24    25    1
     2    25    23    1
     3    23    21    1
     4    21    22    2
     5    21     1    1
     6     1     2    2
     7     2    26    1
     8    26    27    1
     9    27    28    1
    10    28    29    1
    11    29    30    1
    12    30    31    1
    13    31    32    1
    14     2     3    1
    15     3     4    1
    16     4    16    1
    17    16    17   ar
    18    17    18   ar
    19    18    19   ar
    20    19    20   ar
    21     4     5    2
    22     5     6    1
    23     6     8    1
    24     8     9   ar
    25     9    10   ar
    26    10    11   ar
    27    11    12    1
    28    11    13   ar
    29    13    14   ar
    30    14    15    1
    31     6     1    1
    32    14     8   ar
    33    32    27    1
    34    20    16   ar
    35     3     7    1
@<TRIPOS>MOLECULE
*****
 32 35 0 0 0
SMALL
GASTEIGER

@<TRIPOS>ATOM
      1 C         142.3462  142.3936  163.9174 C.2     1  UNL1        0.1397
      2 C         142.1647  142.3837  162.4285 C.2     1  UNL1        0.1355
      3 N         141.0509  141.5888  161.8140 N.pl3   1  UNL1       -0.2011
      4 C         140.1186  140.8038  162.6885 C.2     1  UNL1        0.3262
      5 N         140.3002  140.8137  164.1774 N.2     1  UNL1       -0.0595
      6 C         141.4140  141.6086  164.7918 C.3     1  UNL1        0.2691
      7 H         140.9317  141.5823  160.8368 H       1  UNL1        0.2982
      8 C         141.5955  141.6185  166.2808 C.ar    1  UNL1        0.0371
      9 C         140.9689  142.7035  167.1056 C.ar    1  UNL1        0.0030
     10 C         141.1504  142.7134  168.5945 C.ar    1  UNL1        0.0295
     11 C         141.9585  141.6383  169.2587 C.ar    1  UNL1        0.1406
     12 F         142.1400  141.6482  170.7477 F       1  UNL1       -0.2042
     13 C         142.5851  140.5533  168.4340 C.ar    1  UNL1        0.0362
     14 C         142.4036  140.5434  166.9450 C.ar    1  UNL1        0.0372
     15 BR        143.0302  139.4584  166.1203 Br      1  UNL1       -0.0491
     16 C         139.0048  140.0090  162.0740 C.ar    1  UNL1        0.1115
     17 C         138.0164  140.5112  161.0636 C.ar    1  UNL1        0.0144
     18 C         137.0846  139.3849  160.7272 C.ar    1  UNL1        0.0077
     19 C         137.4971  138.1866  161.5295 C.ar    1  UNL1        0.0357
     20 S         138.6839  138.5723  162.3619 S.2     1  UNL1       -0.0792
     21 C         143.4601  143.1885  164.5319 C.2     1  UNL1        0.3447
     22 O         143.3172  144.6718  164.7028 O.2     1  UNL1       -0.2450
     23 O         144.7167  142.5000  164.9755 O.3     1  UNL1       -0.4455
     24 C         145.2481  140.4374  163.4878 C.3     1  UNL1        0.0513
     25 C         145.5927  141.8160  163.9682 C.3     1  UNL1        0.2089
     26 C         143.0970  143.1687  161.5540 C.3     1  UNL1        0.1405
     27 N         142.5924  143.7854  160.2832 N.3     1  UNL1       -0.2617
     28 C         141.5007  144.8130  160.3300 C.3     1  UNL1        0.1050
     29 C         140.9961  145.4296  159.0591 C.3     1  UNL1        0.1595
     30 O         141.5832  145.0187  157.7414 O.3     1  UNL1       -0.3508
     31 C         142.6749  143.9911  157.6945 C.3     1  UNL1        0.1595
     32 C         143.1795  143.3745  158.9654 C.3     1  UNL1        0.1050
@<TRIPOS>BOND
     1    24    25    1
     2    25    23    1
     3    23    21    1
     4    21    22    2
     5    21     1    1
     6     1     2    2
     7     2    26    1
     8    26    27    1
     9    27    28    1
    10    28    29    1
    11    29    30    1
    12    30    31    1
    13    31    32    1
    14     2     3    1
    15     3     4    1
    16     4    16    1
    17    16    17   ar
    18    17    18   ar
    19    18    19   ar
    20    19    20   ar
    21     4     5    2
    22     5     6    1
    23     6     8    1
    24     8     9   ar
    25     9    10   ar
    26    10    11   ar
    27    11    12    1
    28    11    13   ar
    29    13    14   ar
    30    14    15    1
    31     6     1    1
    32    14     8   ar
    33    32    27    1
    34    20    16   ar
    35     3     7    1
