@<TRIPOS>MOLECULE
*****
 29 32 0 0 0
SMALL
GASTEIGER

@<TRIPOS>ATOM
      1 C         140.9653  143.0740  163.1730 C.3     1  UNL1        0.1406
      2 C         142.1963  142.2536  162.9247 C.3     1  UNL1        0.0375
      3 C         142.6147  141.2098  163.9173 C.3     1  UNL1        0.0430
      4 C         143.8457  140.3893  163.6690 C.3     1  UNL1        0.0921
      5 S         144.2642  139.3456  164.6616 S.3     1  UNL1       -0.0787
      6 C         143.4517  139.1222  165.9026 C.2     1  UNL1        0.1483
      7 N         143.8703  138.0784  166.8953 N.pl3   1  UNL1       -0.3380
      8 N         142.2208  139.9426  166.1510 N.2     1  UNL1       -0.2484
      9 C         141.8023  140.9865  165.1583 C.3     1  UNL1        0.1352
     10 C         140.5714  141.8069  165.4067 C.3     1  UNL1        0.1690
     11 O         140.1529  142.8507  164.4140 O.3     1  UNL1       -0.3494
     12 H         144.6782  137.5399  166.7323 H       1  UNL1        0.1442
     13 H         143.3371  137.9318  167.7098 H       1  UNL1        0.1442
     14 C         140.9899  140.7631  166.3993 C.ar    1  UNL1        0.0278
     15 C         139.8355  139.8055  166.3778 C.ar    1  UNL1        0.0021
     16 C         139.0231  139.5822  167.6188 C.ar    1  UNL1        0.0295
     17 C         139.3650  140.3165  168.8813 C.ar    1  UNL1        0.1424
     18 F         138.5526  140.0931  170.1223 F       1  UNL1       -0.2041
     19 C         140.5194  141.2740  168.9028 C.ar    1  UNL1        0.0590
     20 C         141.3318  141.4974  167.6618 C.ar    1  UNL1        0.1402
     21 F         142.4861  142.4550  167.6833 F       1  UNL1       -0.2044
     22 C         140.3035  145.7327  158.6592 C.3     1  UNL1        0.1537
     23 N         140.2426  145.3399  160.1056 N.ar    1  UNL1       -0.2476
     24 C         140.8506  144.1098  160.7115 C.ar    1  UNL1        0.0947
     25 C         140.5468  144.1178  162.1804 C.ar    1  UNL1        0.0442
     26 C         139.7510  145.3529  162.4823 C.ar    1  UNL1        0.1197
     27 N         139.5630  146.1082  161.2001 N.ar    1  UNL1       -0.1679
     28 C         144.6581  140.6127  162.4280 C.3     1  UNL1        0.2044
     29 F         145.6207  141.7609  162.3583 F       1  UNL1       -0.2334
@<TRIPOS>BOND
     1    22    23    1
     2    23    24   ar
     3    24    25   ar
     4     1    25    1
     5     1     2    1
     6     3     2    1
     7     3     4    1
     8     4    28    1
     9    28    29    1
    10     4     5    1
    11     5     6    1
    12     6     7    1
    13     6     8    2
    14     8     9    1
    15     9    14    1
    16    14    15   ar
    17    15    16   ar
    18    16    17   ar
    19    17    18    1
    20    17    19   ar
    21    19    20   ar
    22    20    21    1
    23     9    10    1
    24    10    11    1
    25    25    26   ar
    26    26    27   ar
    27    27    23   ar
    28    11     1    1
    29     9     3    1
    30    20    14   ar
    31     7    12    1
    32     7    13    1
@<TRIPOS>MOLECULE
*****
 29 32 0 0 0
SMALL
GASTEIGER

@<TRIPOS>ATOM
      1 C         140.7831  142.9291  162.4892 C.3     1  UNL1        0.1406
      2 C         142.2002  142.4499  162.5989 C.3     1  UNL1        0.0375
      3 C         142.5425  141.3288  163.5348 C.3     1  UNL1        0.0430
      4 C         143.9597  140.8496  163.6445 C.3     1  UNL1        0.0921
      5 S         144.3019  139.7285  164.5804 S.3     1  UNL1       -0.0787
      6 C         143.2271  139.0865  165.4066 C.2     1  UNL1        0.1483
      7 N         143.5694  137.9654  166.3425 N.pl3   1  UNL1       -0.3380
      8 N         141.8099  139.5657  165.2969 N.2     1  UNL1       -0.2484
      9 C         141.4676  140.6869  164.3610 C.3     1  UNL1        0.1352
     10 C         140.0505  141.1660  164.2513 C.3     1  UNL1        0.1690
     11 O         139.7082  142.2871  163.3154 O.3     1  UNL1       -0.3494
     12 H         144.4995  137.6509  166.4145 H       1  UNL1        0.1442
     13 H         142.8639  137.5440  166.8848 H       1  UNL1        0.1442
     14 C         140.3927  140.0449  165.1872 C.ar    1  UNL1        0.0278
     15 C         139.5947  138.9057  164.6254 C.ar    1  UNL1        0.0021
     16 C         138.5198  138.2638  165.4516 C.ar    1  UNL1        0.0295
     17 C         138.2430  138.7611  166.8395 C.ar    1  UNL1        0.1424
     18 F         137.1681  138.1191  167.6657 F       1  UNL1       -0.2041
     19 C         139.0410  139.9002  167.4012 C.ar    1  UNL1        0.0590
     20 C         140.1159  140.5421  166.5750 C.ar    1  UNL1        0.1402
     21 F         140.9139  141.6813  167.1366 F       1  UNL1       -0.2044
     22 C         140.3180  145.8602  158.1219 C.3     1  UNL1        0.1537
     23 N         140.2270  145.3975  159.5458 N.ar    1  UNL1       -0.2476
     24 C         140.7460  144.0977  160.0854 C.ar    1  UNL1        0.0947
     25 C         140.4408  144.0502  161.5533 C.ar    1  UNL1        0.0442
     26 C         139.7332  145.3207  161.9209 C.ar    1  UNL1        0.1197
     27 N         139.6010  146.1534  160.6802 N.ar    1  UNL1       -0.1679
     28 C         145.0346  141.4915  162.8183 C.3     1  UNL1        0.2044
     29 F         146.3844  141.7544  163.4172 F       1  UNL1       -0.2334
@<TRIPOS>BOND
     1    22    23    1
     2    23    24   ar
     3    24    25   ar
     4     1    25    1
     5     1     2    1
     6     3     2    1
     7     3     4    1
     8     4    28    1
     9    28    29    1
    10     4     5    1
    11     5     6    1
    12     6     7    1
    13     6     8    2
    14     8     9    1
    15     9    14    1
    16    14    15   ar
    17    15    16   ar
    18    16    17   ar
    19    17    18    1
    20    17    19   ar
    21    19    20   ar
    22    20    21    1
    23     9    10    1
    24    10    11    1
    25    25    26   ar
    26    26    27   ar
    27    27    23   ar
    28    11     1    1
    29     9     3    1
    30    20    14   ar
    31     7    12    1
    32     7    13    1
@<TRIPOS>MOLECULE
*****
 29 32 0 0 0
SMALL
GASTEIGER

@<TRIPOS>ATOM
      1 C         140.8113  143.1481  163.9934 C.3     1  UNL1        0.1406
      2 C         141.6311  141.9408  163.6465 C.3     1  UNL1        0.0375
      3 C         142.0923  141.0111  164.7294 C.3     1  UNL1        0.0430
      4 C         142.9122  139.8037  164.3825 C.3     1  UNL1        0.0921
      5 S         143.3735  138.8740  165.4655 S.3     1  UNL1       -0.0787
      6 C         143.0149  139.1515  166.8953 C.2     1  UNL1        0.1483
      7 N         143.4763  138.2217  167.9783 N.pl3   1  UNL1       -0.3380
      8 N         142.1951  140.3588  167.2422 N.2     1  UNL1       -0.2484
      9 C         141.7338  141.2886  166.1592 C.3     1  UNL1        0.1352
     10 C         140.9140  142.4959  166.5061 C.3     1  UNL1        0.1690
     11 O         140.4527  143.4256  165.4232 O.3     1  UNL1       -0.3494
     12 H         144.0143  137.4294  167.7506 H       1  UNL1        0.1442
     13 H         143.2410  138.4039  168.9167 H       1  UNL1        0.1442
     14 C         141.3753  141.5662  167.5891 C.ar    1  UNL1        0.0278
     15 C         142.2525  142.4513  168.4240 C.ar    1  UNL1        0.0021
     16 C         141.8940  142.7288  169.8539 C.ar    1  UNL1        0.0295
     17 C         140.6582  142.1212  170.4487 C.ar    1  UNL1        0.1424
     18 F         140.2997  142.3988  171.8786 F       1  UNL1       -0.2041
     19 C         139.7811  141.2362  169.6138 C.ar    1  UNL1        0.0590
     20 C         140.1396  140.9586  168.1839 C.ar    1  UNL1        0.1402
     21 F         139.2624  140.0735  167.3490 F       1  UNL1       -0.2044
     22 C         140.3037  145.5575  159.3224 C.3     1  UNL1        0.1537
     23 N         140.1167  145.1853  160.7633 N.ar    1  UNL1       -0.2476
     24 C         140.8499  144.1013  161.4963 C.ar    1  UNL1        0.0947
     25 C         140.3499  144.0779  162.9104 C.ar    1  UNL1        0.0442
     26 C         139.3078  145.1474  163.0514 C.ar    1  UNL1        0.1197
     27 N         139.1636  145.8319  161.7245 N.ar    1  UNL1       -0.1679
     28 C         143.2707  139.5262  162.9527 C.3     1  UNL1        0.2044
     29 F         144.6047  139.9547  162.4172 F       1  UNL1       -0.2334
@<TRIPOS>BOND
     1    22    23    1
     2    23    24   ar
     3    24    25   ar
     4     1    25    1
     5     1     2    1
     6     3     2    1
     7     3     4    1
     8     4    28    1
     9    28    29    1
    10     4     5    1
    11     5     6    1
    12     6     7    1
    13     6     8    2
    14     8     9    1
    15     9    14    1
    16    14    15   ar
    17    15    16   ar
    18    16    17   ar
    19    17    18    1
    20    17    19   ar
    21    19    20   ar
    22    20    21    1
    23     9    10    1
    24    10    11    1
    25    25    26   ar
    26    26    27   ar
    27    27    23   ar
    28    11     1    1
    29     9     3    1
    30    20    14   ar
    31     7    12    1
    32     7    13    1
@<TRIPOS>MOLECULE
*****
 29 32 0 0 0
SMALL
GASTEIGER

@<TRIPOS>ATOM
      1 C         142.3172  141.6314  163.4667 C.3     1  UNL1        0.1406
      2 C         141.1211  140.7344  163.3459 C.3     1  UNL1        0.0375
      3 C         140.3695  140.3169  164.5750 C.3     1  UNL1        0.0430
      4 C         139.1733  139.4199  164.4542 C.3     1  UNL1        0.0921
      5 S         138.4218  139.0024  165.6833 S.3     1  UNL1       -0.0787
      6 C         138.8663  139.4819  167.0333 C.2     1  UNL1        0.1483
      7 N         138.1147  139.0644  168.2625 N.pl3   1  UNL1       -0.3380
      8 N         140.0625  140.3789  167.1541 N.2     1  UNL1       -0.2484
      9 C         140.8141  140.7964  165.9250 C.3     1  UNL1        0.1352
     10 C         142.0102  141.6934  166.0458 C.3     1  UNL1        0.1690
     11 O         142.7618  142.1109  164.8167 O.3     1  UNL1       -0.3494
     12 H         137.3296  138.4756  168.1831 H       1  UNL1        0.1442
     13 H         138.4065  139.3791  169.1485 H       1  UNL1        0.1442
     14 C         141.2587  141.2759  167.2749 C.ar    1  UNL1        0.0278
     15 C         140.6800  142.5338  167.8520 C.ar    1  UNL1        0.0021
     16 C         141.1246  143.0133  169.2020 C.ar    1  UNL1        0.0295
     17 C         142.1478  142.2349  169.9749 C.ar    1  UNL1        0.1424
     18 F         142.5923  142.7145  171.3249 F       1  UNL1       -0.2041
     19 C         142.7263  140.9771  169.3978 C.ar    1  UNL1        0.0590
     20 C         142.2818  140.4976  168.0478 C.ar    1  UNL1        0.1402
     21 F         142.8603  139.2398  167.4707 F       1  UNL1       -0.2044
     22 C         143.4214  143.2751  158.5718 C.3     1  UNL1        0.1537
     23 N         143.5763  142.8045  159.9876 N.ar    1  UNL1       -0.2476
     24 C         142.4605  142.4772  160.9350 C.ar    1  UNL1        0.0947
     25 C         143.0688  142.0489  162.2375 C.ar    1  UNL1        0.0442
     26 C         144.5607  142.1115  162.0951 C.ar    1  UNL1        0.1197
     27 N         144.8744  142.5784  160.7045 N.ar    1  UNL1       -0.1679
     28 C         138.7288  138.9404  163.1042 C.3     1  UNL1        0.2044
     29 F         138.4871  137.4787  162.8696 F       1  UNL1       -0.2334
@<TRIPOS>BOND
     1    22    23    1
     2    23    24   ar
     3    24    25   ar
     4     1    25    1
     5     1     2    1
     6     3     2    1
     7     3     4    1
     8     4    28    1
     9    28    29    1
    10     4     5    1
    11     5     6    1
    12     6     7    1
    13     6     8    2
    14     8     9    1
    15     9    14    1
    16    14    15   ar
    17    15    16   ar
    18    16    17   ar
    19    17    18    1
    20    17    19   ar
    21    19    20   ar
    22    20    21    1
    23     9    10    1
    24    10    11    1
    25    25    26   ar
    26    26    27   ar
    27    27    23   ar
    28    11     1    1
    29     9     3    1
    30    20    14   ar
    31     7    12    1
    32     7    13    1
@<TRIPOS>MOLECULE
*****
 29 32 0 0 0
SMALL
GASTEIGER

@<TRIPOS>ATOM
      1 C         141.8995  141.5859  165.7187 C.3     1  UNL1        0.1406
      2 C         140.8609  142.6591  165.5791 C.3     1  UNL1        0.0375
      3 C         140.6191  143.2996  164.2445 C.3     1  UNL1        0.0430
      4 C         139.5805  144.3729  164.1048 C.3     1  UNL1        0.0921
      5 S         139.3387  145.0135  162.7702 S.3     1  UNL1       -0.0787
      6 C         140.1355  144.5808  161.5753 C.2     1  UNL1        0.1483
      7 N         139.8936  145.2214  160.2406 N.pl3   1  UNL1       -0.3380
      8 N         141.1740  143.5075  161.7149 N.2     1  UNL1       -0.2484
      9 C         141.4159  142.8670  163.0495 C.3     1  UNL1        0.1352
     10 C         142.4544  141.7937  163.1891 C.3     1  UNL1        0.1690
     11 O         142.6962  141.1532  164.5237 O.3     1  UNL1       -0.3494
     12 H         139.2120  145.9258  160.1490 H       1  UNL1        0.1442
     13 H         140.4165  144.9374  159.4563 H       1  UNL1        0.1442
     14 C         142.2126  142.4343  161.8546 C.ar    1  UNL1        0.0278
     15 C         141.7287  141.2992  161.0015 C.ar    1  UNL1        0.0021
     16 C         142.5255  140.8665  159.8065 C.ar    1  UNL1        0.0295
     17 C         143.8061  141.5689  159.4646 C.ar    1  UNL1        0.1424
     18 F         144.6028  141.1362  158.2696 F       1  UNL1       -0.2041
     19 C         144.2899  142.7038  160.3176 C.ar    1  UNL1        0.0590
     20 C         143.4932  143.1365  161.5126 C.ar    1  UNL1        0.1402
     21 F         143.9770  144.2715  162.3657 F       1  UNL1       -0.2044
     22 C         142.1095  140.7642  170.9304 C.3     1  UNL1        0.1537
     23 N         142.2378  140.5677  169.4490 N.ar    1  UNL1       -0.2476
     24 C         141.8375  141.5526  168.3909 C.ar    1  UNL1        0.0947
     25 C         142.1414  140.9453  167.0534 C.ar    1  UNL1        0.0442
     26 C         142.7295  139.5850  167.2848 C.ar    1  UNL1        0.1197
     27 N         142.7891  139.3516  168.7654 N.ar    1  UNL1       -0.1679
     28 C         138.7838  144.8056  165.2998 C.3     1  UNL1        0.2044
     29 F         137.3005  144.5849  165.3322 F       1  UNL1       -0.2334
@<TRIPOS>BOND
     1    22    23    1
     2    23    24   ar
     3    24    25   ar
     4     1    25    1
     5     1     2    1
     6     3     2    1
     7     3     4    1
     8     4    28    1
     9    28    29    1
    10     4     5    1
    11     5     6    1
    12     6     7    1
    13     6     8    2
    14     8     9    1
    15     9    14    1
    16    14    15   ar
    17    15    16   ar
    18    16    17   ar
    19    17    18    1
    20    17    19   ar
    21    19    20   ar
    22    20    21    1
    23     9    10    1
    24    10    11    1
    25    25    26   ar
    26    26    27   ar
    27    27    23   ar
    28    11     1    1
    29     9     3    1
    30    20    14   ar
    31     7    12    1
    32     7    13    1
@<TRIPOS>MOLECULE
*****
 29 32 0 0 0
SMALL
GASTEIGER

@<TRIPOS>ATOM
      1 C         140.6165  141.8275  161.4647 C.3     1  UNL1        0.1406
      2 C         142.0661  141.6306  161.7961 C.3     1  UNL1        0.0375
      3 C         142.4595  140.7605  162.9530 C.3     1  UNL1        0.0430
      4 C         143.9091  140.5636  163.2844 C.3     1  UNL1        0.0921
      5 S         144.3025  139.6936  164.4412 S.3     1  UNL1       -0.0787
      6 C         143.2463  139.0204  165.2666 C.2     1  UNL1        0.1483
      7 N         143.6397  138.1503  166.4235 N.pl3   1  UNL1       -0.3380
      8 N         141.7967  139.2173  164.9352 N.2     1  UNL1       -0.2484
      9 C         141.4033  140.0874  163.7783 C.3     1  UNL1        0.1352
     10 C         139.9537  140.2843  163.4469 C.3     1  UNL1        0.1690
     11 O         139.5603  141.1543  162.2901 O.3     1  UNL1       -0.3494
     12 H         144.5911  138.0211  166.6410 H       1  UNL1        0.1442
     13 H         142.9465  137.7085  166.9652 H       1  UNL1        0.1442
     14 C         140.3470  139.4142  164.6037 C.ar    1  UNL1        0.0278
     15 C         139.7328  140.1340  165.7677 C.ar    1  UNL1        0.0021
     16 C         138.6766  139.4608  166.5931 C.ar    1  UNL1        0.0295
     17 C         138.2346  138.0679  166.2545 C.ar    1  UNL1        0.1424
     18 F         137.1784  137.3948  167.0799 F       1  UNL1       -0.2041
     19 C         138.8488  137.3483  165.0905 C.ar    1  UNL1        0.0590
     20 C         139.9050  138.0214  164.2652 C.ar    1  UNL1        0.1402
     21 F         140.5192  137.3018  163.1012 F       1  UNL1       -0.2044
     22 C         140.3642  145.8750  158.0832 C.3     1  UNL1        0.1537
     23 N         140.1071  144.5580  158.7536 N.ar    1  UNL1       -0.2476
     24 C         140.7837  144.0528  159.9933 C.ar    1  UNL1        0.0947
     25 C         140.2231  142.6975  160.3079 C.ar    1  UNL1        0.0442
     26 C         139.2001  142.3651  159.2625 C.ar    1  UNL1        0.1197
     27 N         139.1284  143.5149  158.3019 N.ar    1  UNL1       -0.1679
     28 C         144.9654  141.2368  162.4591 C.3     1  UNL1        0.2044
     29 F         145.9736  142.1319  163.1163 F       1  UNL1       -0.2334
@<TRIPOS>BOND
     1    22    23    1
     2    23    24   ar
     3    24    25   ar
     4     1    25    1
     5     1     2    1
     6     3     2    1
     7     3     4    1
     8     4    28    1
     9    28    29    1
    10     4     5    1
    11     5     6    1
    12     6     7    1
    13     6     8    2
    14     8     9    1
    15     9    14    1
    16    14    15   ar
    17    15    16   ar
    18    16    17   ar
    19    17    18    1
    20    17    19   ar
    21    19    20   ar
    22    20    21    1
    23     9    10    1
    24    10    11    1
    25    25    26   ar
    26    26    27   ar
    27    27    23   ar
    28    11     1    1
    29     9     3    1
    30    20    14   ar
    31     7    12    1
    32     7    13    1
@<TRIPOS>MOLECULE
*****
 29 32 0 0 0
SMALL
GASTEIGER

@<TRIPOS>ATOM
      1 C         140.2896  140.6734  166.1011 C.3     1  UNL1        0.1406
      2 C         139.4625  141.8700  165.7351 C.3     1  UNL1        0.0375
      3 C         139.1816  142.1751  164.2936 C.3     1  UNL1        0.0430
      4 C         138.3544  143.3717  163.9276 C.3     1  UNL1        0.0921
      5 S         138.0735  143.6767  162.4861 S.3     1  UNL1       -0.0787
      6 C         138.6197  142.7852  161.4105 C.2     1  UNL1        0.1483
      7 N         138.3387  143.0902  159.9689 N.pl3   1  UNL1       -0.3380
      8 N         139.4468  141.5885  161.7765 N.2     1  UNL1       -0.2484
      9 C         139.7278  141.2835  163.2181 C.3     1  UNL1        0.1352
     10 C         140.5548  140.0869  163.5840 C.3     1  UNL1        0.1690
     11 O         140.8358  139.7818  165.0255 O.3     1  UNL1       -0.3494
     12 H         137.7958  143.8756  159.7287 H       1  UNL1        0.1442
     13 H         138.6972  142.5051  159.2630 H       1  UNL1        0.1442
     14 C         140.2739  140.3919  162.1425 C.ar    1  UNL1        0.0278
     15 C         141.6378  140.6510  161.5743 C.ar    1  UNL1        0.0021
     16 C         142.1839  139.7594  160.4988 C.ar    1  UNL1        0.0295
     17 C         141.3663  138.6087  159.9915 C.ar    1  UNL1        0.1424
     18 F         141.9124  137.7171  158.9159 F       1  UNL1       -0.2041
     19 C         140.0025  138.3496  160.5597 C.ar    1  UNL1        0.0590
     20 C         139.4563  139.2412  161.6352 C.ar    1  UNL1        0.1402
     21 F         138.0925  138.9821  162.2035 F       1  UNL1       -0.2044
     22 C         142.8259  139.8663  170.6614 C.3     1  UNL1        0.1537
     23 N         141.7365  139.9974  169.6388 N.ar    1  UNL1       -0.2476
     24 C         141.9224  140.3484  168.1924 C.ar    1  UNL1        0.0947
     25 C         140.5706  140.3683  167.5427 C.ar    1  UNL1        0.0442
     26 C         139.5491  140.0297  168.5875 C.ar    1  UNL1        0.1197
     27 N         140.2696  139.8004  169.8830 N.ar    1  UNL1       -0.1679
     28 C         137.8083  144.2633  165.0031 C.3     1  UNL1        0.2044
     29 F         138.7131  145.2313  165.7061 F       1  UNL1       -0.2334
@<TRIPOS>BOND
     1    22    23    1
     2    23    24   ar
     3    24    25   ar
     4     1    25    1
     5     1     2    1
     6     3     2    1
     7     3     4    1
     8     4    28    1
     9    28    29    1
    10     4     5    1
    11     5     6    1
    12     6     7    1
    13     6     8    2
    14     8     9    1
    15     9    14    1
    16    14    15   ar
    17    15    16   ar
    18    16    17   ar
    19    17    18    1
    20    17    19   ar
    21    19    20   ar
    22    20    21    1
    23     9    10    1
    24    10    11    1
    25    25    26   ar
    26    26    27   ar
    27    27    23   ar
    28    11     1    1
    29     9     3    1
    30    20    14   ar
    31     7    12    1
    32     7    13    1
@<TRIPOS>MOLECULE
*****
 29 32 0 0 0
SMALL
GASTEIGER

@<TRIPOS>ATOM
      1 C         140.8838  140.7045  166.4459 C.3     1  UNL1        0.1406
      2 C         140.2832  139.5575  165.6886 C.3     1  UNL1        0.0375
      3 C         139.6561  139.7913  164.3462 C.3     1  UNL1        0.0430
      4 C         139.0555  138.6442  163.5889 C.3     1  UNL1        0.0921
      5 S         138.4283  138.8781  162.2465 S.3     1  UNL1       -0.0787
      6 C         138.4017  140.2590  161.6615 C.2     1  UNL1        0.1483
      7 N         137.7745  140.4929  160.3191 N.pl3   1  UNL1       -0.3380
      8 N         139.0023  141.4061  162.4188 N.2     1  UNL1       -0.2484
      9 C         139.6295  141.1723  163.7612 C.3     1  UNL1        0.1352
     10 C         140.2300  142.3193  164.5185 C.3     1  UNL1        0.1690
     11 O         140.8572  142.0855  165.8608 O.3     1  UNL1       -0.3494
     12 H         137.3803  139.7400  159.8220 H       1  UNL1        0.1442
     13 H         137.7570  141.3992  159.9350 H       1  UNL1        0.1442
     14 C         139.6029  142.5532  163.1761 C.ar    1  UNL1        0.0278
     15 C         140.7255  143.0165  162.2957 C.ar    1  UNL1        0.0021
     16 C         140.6989  144.3974  161.7106 C.ar    1  UNL1        0.0295
     17 C         139.5497  145.3151  162.0060 C.ar    1  UNL1        0.1424
     18 F         139.5231  146.6960  161.4209 F       1  UNL1       -0.2041
     19 C         138.4271  144.8518  162.8864 C.ar    1  UNL1        0.0590
     20 C         138.4537  143.4709  163.4714 C.ar    1  UNL1        0.1402
     21 F         137.3311  143.0076  164.3518 F       1  UNL1       -0.2044
     22 C         141.9871  141.0333  171.5991 C.3     1  UNL1        0.1537
     23 N         142.0181  140.6218  170.1570 N.ar    1  UNL1       -0.2476
     24 C         141.1386  141.1599  169.0675 C.ar    1  UNL1        0.0947
     25 C         141.5110  140.4707  167.7883 C.ar    1  UNL1        0.0442
     26 C         142.6206  139.5067  168.0871 C.ar    1  UNL1        0.1197
     27 N         142.9340  139.6000  169.5510 N.ar    1  UNL1       -0.1679
     28 C         139.0821  137.2633  164.1739 C.3     1  UNL1        0.2044
     29 F         138.3550  136.9771  165.4543 F       1  UNL1       -0.2334
@<TRIPOS>BOND
     1    22    23    1
     2    23    24   ar
     3    24    25   ar
     4     1    25    1
     5     1     2    1
     6     3     2    1
     7     3     4    1
     8     4    28    1
     9    28    29    1
    10     4     5    1
    11     5     6    1
    12     6     7    1
    13     6     8    2
    14     8     9    1
    15     9    14    1
    16    14    15   ar
    17    15    16   ar
    18    16    17   ar
    19    17    18    1
    20    17    19   ar
    21    19    20   ar
    22    20    21    1
    23     9    10    1
    24    10    11    1
    25    25    26   ar
    26    26    27   ar
    27    27    23   ar
    28    11     1    1
    29     9     3    1
    30    20    14   ar
    31     7    12    1
    32     7    13    1
