@<TRIPOS>MOLECULE
*****
 42 45 0 0 0
SMALL
GASTEIGER

@<TRIPOS>ATOM
      1 C         140.1225  141.6895  168.0458 C.2     1  UNL1        0.0706
      2 C         139.6249  140.5693  168.9103 C.2     1  UNL1        0.0283
      3 C         139.7937  140.6390  170.3992 C.3     1  UNL1        0.0470
      4 N         138.9583  139.3793  168.2861 N.pl3   1  UNL1       -0.3193
      5 C         138.7894  139.3095  166.7973 C.2     1  UNL1        0.0264
      6 C         138.1229  138.1196  166.1730 C.3     1  UNL1        0.0470
      7 C         139.2871  140.4297  165.9328 C.2     1  UNL1        0.0485
      8 C         139.9536  141.6197  166.5570 C.3     1  UNL1        0.0795
      9 H         138.6317  138.6441  168.8535 H       1  UNL1        0.1516
     10 C         140.4513  142.7399  165.6924 C.ar    1  UNL1       -0.0078
     11 C         139.5178  143.8382  165.2769 C.ar    1  UNL1       -0.0032
     12 C         140.0154  144.9584  164.4123 C.ar    1  UNL1        0.0060
     13 C         141.4465  144.9804  163.9632 C.ar    1  UNL1        0.0752
     14 C         142.3799  143.8822  164.3787 C.ar    1  UNL1        0.2898
     15 C         141.8822  142.7619  165.2433 C.ar    1  UNL1        0.0716
     16 N         143.8109  143.9041  163.9296 N.pl3   1  UNL1        0.0809
     17 O         144.2307  144.8051  162.8062 O.2     1  UNL1        0.0415
     18 O         144.8221  143.0251  164.6039 O.co2   1  UNL1       -0.5760
     19 C         139.1182  140.3600  164.4439 C.2     1  UNL1        0.2434
     20 O         140.0776  139.5563  163.6171 O.2     1  UNL1       -0.2704
     21 N         137.9899  141.0940  163.7819 N.am    1  UNL1       -0.3010
     22 H         137.3602  141.6215  164.3245 H       1  UNL1        0.1497
     23 C         137.8210  141.0243  162.2931 C.3     1  UNL1        0.0911
     24 C         138.6668  141.8840  161.4012 C.3     1  UNL1        0.0370
     25 C         138.2970  142.3621  160.0284 C.3     1  UNL1        0.0204
     26 C         139.4326  143.1902  159.5043 C.3     1  UNL1        0.0722
     27 N         140.5043  143.2240  160.5532 N.3     1  UNL1       -0.2723
     28 C         140.0310  142.4167  161.7256 C.3     1  UNL1        0.0738
     29 C         141.8185  143.9394  160.4483 C.3     1  UNL1        0.0768
     30 C         143.0065  143.2425  159.8541 C.3     1  UNL1        0.0437
     31 C         143.2976  141.8162  160.2156 C.ar    1  UNL1       -0.0199
     32 C         143.0731  140.7266  159.2096 C.ar    1  UNL1       -0.0033
     33 C         143.3643  139.3002  159.5712 C.ar    1  UNL1        0.0119
     34 C         143.8800  138.9635  160.9389 C.ar    1  UNL1        0.0682
     35 CL        144.1712  137.5371  161.3005 Cl      1  UNL1       -0.0814
     36 C         144.1046  140.0531  161.9450 C.ar    1  UNL1        0.0679
     37 CL        144.6203  139.7164  163.3127 Cl      1  UNL1       -0.0814
     38 C         143.8134  141.4795  161.5834 C.ar    1  UNL1        0.0080
     39 C         140.7890  142.8795  168.6701 C.2     1  UNL1        0.3388
     40 O         139.9822  144.0962  169.0143 O.2     1  UNL1       -0.2452
     41 C         143.0708  141.6392  168.5982 C.3     1  UNL1        0.2559
     42 O         142.2624  142.8527  168.9501 O.3     1  UNL1       -0.4415
@<TRIPOS>UNITY_ATOM_ATTR
16 1
charge 1
18 1
charge -1
@<TRIPOS>BOND
     1    41    42    1
     2    42    39    1
     3    39    40    2
     4    39     1    1
     5     1     2    2
     6     2     3    1
     7     2     4    1
     8     4     5    1
     9     5     6    1
    10     5     7    2
    11     7    19    1
    12    19    20    2
    13    19    21   am
    14    21    23    1
    15    24    23    1
    16    24    25    1
    17    25    26    1
    18    26    27    1
    19    27    29    1
    20    29    30    1
    21    30    31    1
    22    31    32   ar
    23    32    33   ar
    24    33    34   ar
    25    34    35    1
    26    34    36   ar
    27    36    37    1
    28    36    38   ar
    29    27    28    1
    30     7     8    1
    31     8    10    1
    32    10    11   ar
    33    11    12   ar
    34    12    13   ar
    35    13    14   ar
    36    14    16    1
    37    16    17    2
    38    16    18    1
    39    14    15   ar
    40     8     1    1
    41    15    10   ar
    42    28    24    1
    43    38    31   ar
    44     4     9    1
    45    21    22    1
@<TRIPOS>MOLECULE
*****
 42 45 0 0 0
SMALL
GASTEIGER

@<TRIPOS>ATOM
      1 C         140.0447  141.5044  168.0459 C.2     1  UNL1        0.0706
      2 C         139.4346  140.5552  169.0342 C.2     1  UNL1        0.0283
      3 C         139.5961  140.7981  170.5056 C.3     1  UNL1        0.0470
      4 N         138.6630  139.3630  168.5511 N.pl3   1  UNL1       -0.3193
      5 C         138.5015  139.1200  167.0798 C.2     1  UNL1        0.0264
      6 C         137.7299  137.9279  166.5968 C.3     1  UNL1        0.0470
      7 C         139.1117  140.0692  166.0916 C.2     1  UNL1        0.0485
      8 C         139.8833  141.2614  166.5746 C.3     1  UNL1        0.0795
      9 H         138.2626  138.7400  169.1998 H       1  UNL1        0.1516
     10 C         140.4934  142.2107  165.5863 C.ar    1  UNL1       -0.0078
     11 C         141.9787  142.2232  165.3770 C.ar    1  UNL1       -0.0032
     12 C         142.5888  143.1724  164.3887 C.ar    1  UNL1        0.0060
     13 C         141.7137  144.1090  163.6096 C.ar    1  UNL1        0.0752
     14 C         140.2284  144.0965  163.8189 C.ar    1  UNL1        0.2898
     15 C         139.6183  143.1473  164.8073 C.ar    1  UNL1        0.0716
     16 N         139.3533  145.0331  163.0400 N.pl3   1  UNL1        0.0809
     17 O         137.8783  144.7772  162.9451 O.2     1  UNL1        0.0415
     18 O         139.9531  146.2257  162.3559 O.co2   1  UNL1       -0.5760
     19 C         138.9502  139.8263  164.6201 C.2     1  UNL1        0.2434
     20 O         139.9034  138.9186  163.9008 O.2     1  UNL1       -0.2704
     21 N         137.8355  140.4911  163.8681 N.am    1  UNL1       -0.3010
     22 H         137.2099  141.0868  164.3403 H       1  UNL1        0.1497
     23 C         137.6740  140.2482  162.3968 C.3     1  UNL1        0.0911
     24 C         138.5281  140.9945  161.4152 C.3     1  UNL1        0.0370
     25 C         138.1744  142.2883  160.7437 C.3     1  UNL1        0.0204
     26 C         139.3136  142.6715  159.8463 C.3     1  UNL1        0.0722
     27 N         140.3715  141.6145  159.9632 N.3     1  UNL1       -0.2723
     28 C         139.8860  140.5781  160.9328 C.3     1  UNL1        0.0738
     29 C         141.6843  141.5970  159.2378 C.3     1  UNL1        0.0768
     30 C         142.6117  140.4283  159.3934 C.3     1  UNL1        0.0437
     31 C         143.2420  140.1431  160.7243 C.ar    1  UNL1       -0.0199
     32 C         142.9182  138.8711  161.4503 C.ar    1  UNL1       -0.0033
     33 C         143.5486  138.5859  162.7813 C.ar    1  UNL1        0.0119
     34 C         144.5027  139.5726  163.3861 C.ar    1  UNL1        0.0682
     35 CL        145.1331  139.2874  164.7170 Cl      1  UNL1       -0.0814
     36 C         144.8266  140.8447  162.6601 C.ar    1  UNL1        0.0679
     37 CL        145.7807  141.8314  163.2649 Cl      1  UNL1       -0.0814
     38 C         144.1962  141.1299  161.3291 C.ar    1  UNL1        0.0080
     39 C         140.8163  142.6966  168.5290 C.2     1  UNL1        0.3388
     40 O         140.0985  143.9726  168.8551 O.2     1  UNL1       -0.2452
     41 C         142.9664  141.2788  168.8712 C.3     1  UNL1        0.2559
     42 O         142.3057  142.6127  168.6860 O.3     1  UNL1       -0.4415
@<TRIPOS>UNITY_ATOM_ATTR
16 1
charge 1
18 1
charge -1
@<TRIPOS>BOND
     1    41    42    1
     2    42    39    1
     3    39    40    2
     4    39     1    1
     5     1     2    2
     6     2     3    1
     7     2     4    1
     8     4     5    1
     9     5     6    1
    10     5     7    2
    11     7    19    1
    12    19    20    2
    13    19    21   am
    14    21    23    1
    15    24    23    1
    16    24    25    1
    17    25    26    1
    18    26    27    1
    19    27    29    1
    20    29    30    1
    21    30    31    1
    22    31    32   ar
    23    32    33   ar
    24    33    34   ar
    25    34    35    1
    26    34    36   ar
    27    36    37    1
    28    36    38   ar
    29    27    28    1
    30     7     8    1
    31     8    10    1
    32    10    11   ar
    33    11    12   ar
    34    12    13   ar
    35    13    14   ar
    36    14    16    1
    37    16    17    2
    38    16    18    1
    39    14    15   ar
    40     8     1    1
    41    15    10   ar
    42    28    24    1
    43    38    31   ar
    44     4     9    1
    45    21    22    1
@<TRIPOS>MOLECULE
*****
 42 45 0 0 0
SMALL
GASTEIGER

@<TRIPOS>ATOM
      1 C         140.1455  141.6030  168.1704 C.2     1  UNL1        0.0706
      2 C         139.6547  140.5371  169.1047 C.2     1  UNL1        0.0283
      3 C         139.9535  140.6298  170.5717 C.3     1  UNL1        0.0470
      4 N         138.8650  139.3784  168.5719 N.pl3   1  UNL1       -0.3193
      5 C         138.5662  139.2856  167.1049 C.2     1  UNL1        0.0264
      6 C         137.7766  138.1269  166.5722 C.3     1  UNL1        0.0470
      7 C         139.0571  140.3515  166.1707 C.2     1  UNL1        0.0485
      8 C         139.8467  141.5102  166.7035 C.3     1  UNL1        0.0795
      9 H         138.5429  138.6787  169.1851 H       1  UNL1        0.1516
     10 C         140.3376  142.5762  165.7692 C.ar    1  UNL1       -0.0078
     11 C         139.4384  143.7167  165.3939 C.ar    1  UNL1       -0.0032
     12 C         139.9292  144.7826  164.4596 C.ar    1  UNL1        0.0060
     13 C         141.3192  144.7081  163.9006 C.ar    1  UNL1        0.0752
     14 C         142.2183  143.5676  164.2759 C.ar    1  UNL1        0.2898
     15 C         141.7275  142.5017  165.2102 C.ar    1  UNL1        0.0716
     16 N         143.6083  143.4931  163.7169 N.pl3   1  UNL1        0.0809
     17 O         144.2129  144.6918  163.0479 O.2     1  UNL1        0.0415
     18 O         144.3936  142.2199  163.8270 O.co2   1  UNL1       -0.5760
     19 C         138.7582  140.2588  164.7037 C.2     1  UNL1        0.2434
     20 O         137.6233  141.0456  164.1182 O.2     1  UNL1       -0.2704
     21 N         139.5944  139.3791  163.8221 N.am    1  UNL1       -0.3010
     22 H         140.3393  138.8627  164.2064 H       1  UNL1        0.1497
     23 C         139.2956  139.2864  162.3551 C.3     1  UNL1        0.0911
     24 C         140.3484  139.6509  161.3508 C.3     1  UNL1        0.0370
     25 C         140.2137  139.5598  159.8596 C.3     1  UNL1        0.0204
     26 C         141.5028  140.0231  159.2485 C.3     1  UNL1        0.0722
     27 N         142.4343  140.4006  160.3620 N.3     1  UNL1       -0.2723
     28 C         141.7208  140.1706  161.6612 C.3     1  UNL1        0.0738
     29 C         143.8336  140.9174  160.2039 C.3     1  UNL1        0.0768
     30 C         144.0939  142.3946  160.2206 C.3     1  UNL1        0.0437
     31 C         143.1175  143.3355  159.5792 C.ar    1  UNL1       -0.0199
     32 C         143.1630  143.5689  158.0983 C.ar    1  UNL1       -0.0033
     33 C         142.1866  144.5099  157.4570 C.ar    1  UNL1        0.0119
     34 C         141.1647  145.2174  158.2967 C.ar    1  UNL1        0.0682
     35 CL        140.1883  146.1583  157.6553 Cl      1  UNL1       -0.0814
     36 C         141.1192  144.9840  159.7777 C.ar    1  UNL1        0.0679
     37 CL        140.0973  145.6915  160.6174 Cl      1  UNL1       -0.0814
     38 C         142.0956  144.0430  160.4190 C.ar    1  UNL1        0.0080
     39 C         140.9352  142.7617  168.7032 C.2     1  UNL1        0.3388
     40 O         140.2261  143.9462  169.2897 O.2     1  UNL1       -0.2452
     41 C         143.2165  142.1824  169.8033 C.3     1  UNL1        0.2559
     42 O         142.4340  142.7359  168.6494 O.3     1  UNL1       -0.4415
@<TRIPOS>UNITY_ATOM_ATTR
16 1
charge 1
18 1
charge -1
@<TRIPOS>BOND
     1    41    42    1
     2    42    39    1
     3    39    40    2
     4    39     1    1
     5     1     2    2
     6     2     3    1
     7     2     4    1
     8     4     5    1
     9     5     6    1
    10     5     7    2
    11     7    19    1
    12    19    20    2
    13    19    21   am
    14    21    23    1
    15    24    23    1
    16    24    25    1
    17    25    26    1
    18    26    27    1
    19    27    29    1
    20    29    30    1
    21    30    31    1
    22    31    32   ar
    23    32    33   ar
    24    33    34   ar
    25    34    35    1
    26    34    36   ar
    27    36    37    1
    28    36    38   ar
    29    27    28    1
    30     7     8    1
    31     8    10    1
    32    10    11   ar
    33    11    12   ar
    34    12    13   ar
    35    13    14   ar
    36    14    16    1
    37    16    17    2
    38    16    18    1
    39    14    15   ar
    40     8     1    1
    41    15    10   ar
    42    28    24    1
    43    38    31   ar
    44     4     9    1
    45    21    22    1
@<TRIPOS>MOLECULE
*****
 42 45 0 0 0
SMALL
GASTEIGER

@<TRIPOS>ATOM
      1 C         140.1933  141.7165  168.1364 C.2     1  UNL1        0.0706
      2 C         139.7149  140.6278  169.0506 C.2     1  UNL1        0.0283
      3 C         139.9686  140.7220  170.5261 C.3     1  UNL1        0.0470
      4 N         138.9830  139.4448  168.4895 N.pl3   1  UNL1       -0.3193
      5 C         138.7293  139.3506  167.0141 C.2     1  UNL1        0.0264
      6 C         137.9973  138.1677  166.4530 C.3     1  UNL1        0.0470
      7 C         139.2077  140.4393  166.0999 C.2     1  UNL1        0.0485
      8 C         139.9397  141.6223  166.6610 C.3     1  UNL1        0.0795
      9 H         138.6690  138.7303  169.0895 H       1  UNL1        0.1516
     10 C         140.4180  142.7110  165.7467 C.ar    1  UNL1       -0.0078
     11 C         139.5233  143.8730  165.4318 C.ar    1  UNL1       -0.0032
     12 C         140.0016  144.9617  164.5176 C.ar    1  UNL1        0.0060
     13 C         141.3747  144.8884  163.9181 C.ar    1  UNL1        0.0752
     14 C         142.2694  143.7264  164.2330 C.ar    1  UNL1        0.2898
     15 C         141.7911  142.6377  165.1473 C.ar    1  UNL1        0.0716
     16 N         143.6425  143.6532  163.6337 N.pl3   1  UNL1        0.0809
     17 O         144.0116  144.5535  162.4921 O.2     1  UNL1        0.0415
     18 O         144.6465  142.6795  164.1758 O.co2   1  UNL1       -0.5760
     19 C         138.9540  140.3451  164.6244 C.2     1  UNL1        0.2434
     20 O         139.9385  139.6422  163.7376 O.2     1  UNL1       -0.2704
     21 N         137.7159  140.9540  164.0359 N.am    1  UNL1       -0.3010
     22 H         137.0698  141.4154  164.6180 H       1  UNL1        0.1497
     23 C         137.4623  140.8598  162.5606 C.3     1  UNL1        0.0911
     24 C         138.2729  141.6855  161.6060 C.3     1  UNL1        0.0370
     25 C         138.1092  141.7247  160.1155 C.3     1  UNL1        0.0204
     26 C         139.1246  142.6804  159.5626 C.3     1  UNL1        0.0722
     27 N         139.9159  143.2318  160.7114 N.3     1  UNL1       -0.2723
     28 C         139.3895  142.6169  161.9743 C.3     1  UNL1        0.0738
     29 C         141.0368  144.2239  160.6145 C.3     1  UNL1        0.0768
     30 C         140.8828  145.4486  159.7622 C.3     1  UNL1        0.0437
     31 C         141.1981  145.3871  158.2970 C.ar    1  UNL1       -0.0199
     32 C         142.2469  144.4399  157.7946 C.ar    1  UNL1       -0.0033
     33 C         142.5622  144.3785  156.3293 C.ar    1  UNL1        0.0119
     34 C         141.8286  145.2644  155.3665 C.ar    1  UNL1        0.0682
     35 CL        142.1439  145.2030  153.9013 Cl      1  UNL1       -0.0814
     36 C         140.7796  146.2117  155.8689 C.ar    1  UNL1        0.0679
     37 CL        140.0460  147.0976  154.9062 Cl      1  UNL1       -0.0814
     38 C         140.4644  146.2731  157.3342 C.ar    1  UNL1        0.0080
     39 C         140.9253  142.8994  168.6975 C.2     1  UNL1        0.3388
     40 O         140.1584  144.0399  169.2985 O.2     1  UNL1       -0.2452
     41 C         143.2229  142.2184  169.7011 C.3     1  UNL1        0.2559
     42 O         142.4241  142.9418  168.6577 O.3     1  UNL1       -0.4415
@<TRIPOS>UNITY_ATOM_ATTR
16 1
charge 1
18 1
charge -1
@<TRIPOS>BOND
     1    41    42    1
     2    42    39    1
     3    39    40    2
     4    39     1    1
     5     1     2    2
     6     2     3    1
     7     2     4    1
     8     4     5    1
     9     5     6    1
    10     5     7    2
    11     7    19    1
    12    19    20    2
    13    19    21   am
    14    21    23    1
    15    24    23    1
    16    24    25    1
    17    25    26    1
    18    26    27    1
    19    27    29    1
    20    29    30    1
    21    30    31    1
    22    31    32   ar
    23    32    33   ar
    24    33    34   ar
    25    34    35    1
    26    34    36   ar
    27    36    37    1
    28    36    38   ar
    29    27    28    1
    30     7     8    1
    31     8    10    1
    32    10    11   ar
    33    11    12   ar
    34    12    13   ar
    35    13    14   ar
    36    14    16    1
    37    16    17    2
    38    16    18    1
    39    14    15   ar
    40     8     1    1
    41    15    10   ar
    42    28    24    1
    43    38    31   ar
    44     4     9    1
    45    21    22    1
@<TRIPOS>MOLECULE
*****
 42 45 0 0 0
SMALL
GASTEIGER

@<TRIPOS>ATOM
      1 C         143.0979  143.1525  160.2728 C.2     1  UNL1        0.0706
      2 C         144.4544  142.6148  159.9254 C.2     1  UNL1        0.0283
      3 C         144.8654  142.4878  158.4884 C.3     1  UNL1        0.0470
      4 N         145.3999  142.2040  161.0150 N.pl3   1  UNL1       -0.3193
      5 C         144.9890  142.3310  162.4520 C.2     1  UNL1        0.0264
      6 C         145.9345  141.9202  163.5416 C.3     1  UNL1        0.0470
      7 C         143.6325  142.8687  162.7994 C.2     1  UNL1        0.0485
      8 C         142.6870  143.2795  161.7098 C.3     1  UNL1        0.0795
      9 H         146.2903  141.8510  160.7870 H       1  UNL1        0.1516
     10 C         141.3304  143.8173  162.0572 C.ar    1  UNL1       -0.0078
     11 C         141.0734  145.2942  162.0057 C.ar    1  UNL1       -0.0032
     12 C         139.7169  145.8320  162.3531 C.ar    1  UNL1        0.0060
     13 C         138.6174  144.8929  162.7520 C.ar    1  UNL1        0.0752
     14 C         138.8744  143.4160  162.8036 C.ar    1  UNL1        0.2898
     15 C         140.2310  142.8782  162.4561 C.ar    1  UNL1        0.0716
     16 N         137.7749  142.4768  163.2025 N.pl3   1  UNL1        0.0809
     17 O         137.1589  141.5665  162.1818 O.2     1  UNL1        0.0415
     18 O         137.2915  142.4480  164.6222 O.co2   1  UNL1       -0.5760
     19 C         143.2215  142.9957  164.2364 C.2     1  UNL1        0.2434
     20 O         143.4533  144.2823  164.9719 O.2     1  UNL1       -0.2704
     21 N         142.5786  141.8361  164.9379 N.am    1  UNL1       -0.3010
     22 H         142.4264  140.9917  164.4551 H       1  UNL1        0.1497
     23 C         142.1675  141.9631  166.3748 C.3     1  UNL1        0.0911
     24 C         141.0418  141.1283  166.9095 C.3     1  UNL1        0.0370
     25 C         140.6767  140.9620  168.3548 C.3     1  UNL1        0.0204
     26 C         139.4928  140.0442  168.4313 C.3     1  UNL1        0.0722
     27 N         139.1261  139.6432  167.0332 N.3     1  UNL1       -0.2723
     28 C         140.0835  140.3132  166.0927 C.3     1  UNL1        0.0738
     29 C         137.9999  138.7321  166.6439 C.3     1  UNL1        0.0768
     30 C         138.2720  137.5201  165.8031 C.3     1  UNL1        0.0437
     31 C         139.1566  137.6275  164.5965 C.ar    1  UNL1       -0.0199
     32 C         140.5995  137.2277  164.6863 C.ar    1  UNL1       -0.0033
     33 C         141.4840  137.3352  163.4796 C.ar    1  UNL1        0.0119
     34 C         140.9256  137.8424  162.1831 C.ar    1  UNL1        0.0682
     35 CL        141.8102  137.9498  160.9765 Cl      1  UNL1       -0.0814
     36 C         139.4827  138.2421  162.0932 C.ar    1  UNL1        0.0679
     37 CL        138.9243  138.7493  160.7968 Cl      1  UNL1       -0.0814
     38 C         138.5981  138.1347  163.3000 C.ar    1  UNL1        0.0080
     39 C         142.1524  143.5633  159.1832 C.2     1  UNL1        0.3388
     40 O         142.2315  144.9441  158.6027 O.2     1  UNL1       -0.2452
     41 C         141.1767  141.1568  159.1031 C.3     1  UNL1        0.2559
     42 O         141.1278  142.5933  158.6741 O.3     1  UNL1       -0.4415
@<TRIPOS>UNITY_ATOM_ATTR
16 1
charge 1
18 1
charge -1
@<TRIPOS>BOND
     1    41    42    1
     2    42    39    1
     3    39    40    2
     4    39     1    1
     5     1     2    2
     6     2     3    1
     7     2     4    1
     8     4     5    1
     9     5     6    1
    10     5     7    2
    11     7    19    1
    12    19    20    2
    13    19    21   am
    14    21    23    1
    15    24    23    1
    16    24    25    1
    17    25    26    1
    18    26    27    1
    19    27    29    1
    20    29    30    1
    21    30    31    1
    22    31    32   ar
    23    32    33   ar
    24    33    34   ar
    25    34    35    1
    26    34    36   ar
    27    36    37    1
    28    36    38   ar
    29    27    28    1
    30     7     8    1
    31     8    10    1
    32    10    11   ar
    33    11    12   ar
    34    12    13   ar
    35    13    14   ar
    36    14    16    1
    37    16    17    2
    38    16    18    1
    39    14    15   ar
    40     8     1    1
    41    15    10   ar
    42    28    24    1
    43    38    31   ar
    44     4     9    1
    45    21    22    1
@<TRIPOS>MOLECULE
*****
 42 45 0 0 0
SMALL
GASTEIGER

@<TRIPOS>ATOM
      1 C         140.1627  141.6647  168.0812 C.2     1  UNL1        0.0706
      2 C         139.6946  140.5629  168.9849 C.2     1  UNL1        0.0283
      3 C         139.9687  140.6336  170.4580 C.3     1  UNL1        0.0470
      4 N         138.9523  139.3903  168.4157 N.pl3   1  UNL1       -0.3193
      5 C         138.6782  139.3195  166.9427 C.2     1  UNL1        0.0264
      6 C         137.9359  138.1469  166.3735 C.3     1  UNL1        0.0470
      7 C         139.1463  140.4213  166.0389 C.2     1  UNL1        0.0485
      8 C         139.8886  141.5939  166.6082 C.3     1  UNL1        0.0795
      9 H         138.6450  138.6671  169.0089 H       1  UNL1        0.1516
     10 C         140.3568  142.6957  165.7043 C.ar    1  UNL1       -0.0078
     11 C         139.4369  143.8320  165.3684 C.ar    1  UNL1       -0.0032
     12 C         139.9050  144.9338  164.4646 C.ar    1  UNL1        0.0060
     13 C         141.2930  144.8993  163.8967 C.ar    1  UNL1        0.0752
     14 C         142.2128  143.7631  164.2326 C.ar    1  UNL1        0.2898
     15 C         141.7446  142.6612  165.1365 C.ar    1  UNL1        0.0716
     16 N         143.6007  143.7286  163.6648 N.pl3   1  UNL1        0.0809
     17 O         144.0785  144.8445  162.7836 O.2     1  UNL1        0.0415
     18 O         144.5108  142.5782  163.9781 O.co2   1  UNL1       -0.5760
     19 C         138.8722  140.3505  164.5658 C.2     1  UNL1        0.2434
     20 O         139.8510  139.6741  163.6525 O.2     1  UNL1       -0.2704
     21 N         137.6192  140.9562  164.0062 N.am    1  UNL1       -0.3010
     22 H         136.9768  141.4002  164.6057 H       1  UNL1        0.1497
     23 C         137.3451  140.8855  162.5332 C.3     1  UNL1        0.0911
     24 C         138.2140  141.6405  161.5715 C.3     1  UNL1        0.0370
     25 C         138.6373  143.0735  161.7038 C.3     1  UNL1        0.0204
     26 C         139.4971  143.4138  160.5227 C.3     1  UNL1        0.0722
     27 N         139.6051  142.1912  159.6604 N.3     1  UNL1       -0.2723
     28 C         138.8121  141.0953  160.3086 C.3     1  UNL1        0.0738
     29 C         140.3716  142.0833  158.3755 C.3     1  UNL1        0.0768
     30 C         139.7445  142.5307  157.0883 C.3     1  UNL1        0.0437
     31 C         138.6115  141.7477  156.4941 C.ar    1  UNL1       -0.0199
     32 C         137.1962  142.1945  156.7108 C.ar    1  UNL1       -0.0033
     33 C         136.0631  141.4114  156.1165 C.ar    1  UNL1        0.0119
     34 C         136.3455  140.1815  155.3056 C.ar    1  UNL1        0.0682
     35 CL        135.2125  139.3985  154.7113 Cl      1  UNL1       -0.0814
     36 C         137.7610  139.7347  155.0888 C.ar    1  UNL1        0.0679
     37 CL        138.0433  138.5048  154.2779 Cl      1  UNL1       -0.0814
     38 C         138.8940  140.5178  155.6831 C.ar    1  UNL1        0.0080
     39 C         140.9050  142.8373  168.6504 C.2     1  UNL1        0.3388
     40 O         140.1480  143.9827  169.2544 O.2     1  UNL1       -0.2452
     41 C         143.1921  142.1660  169.6842 C.3     1  UNL1        0.2559
     42 O         142.4043  142.8644  168.6157 O.3     1  UNL1       -0.4415
@<TRIPOS>UNITY_ATOM_ATTR
16 1
charge 1
18 1
charge -1
@<TRIPOS>BOND
     1    41    42    1
     2    42    39    1
     3    39    40    2
     4    39     1    1
     5     1     2    2
     6     2     3    1
     7     2     4    1
     8     4     5    1
     9     5     6    1
    10     5     7    2
    11     7    19    1
    12    19    20    2
    13    19    21   am
    14    21    23    1
    15    24    23    1
    16    24    25    1
    17    25    26    1
    18    26    27    1
    19    27    29    1
    20    29    30    1
    21    30    31    1
    22    31    32   ar
    23    32    33   ar
    24    33    34   ar
    25    34    35    1
    26    34    36   ar
    27    36    37    1
    28    36    38   ar
    29    27    28    1
    30     7     8    1
    31     8    10    1
    32    10    11   ar
    33    11    12   ar
    34    12    13   ar
    35    13    14   ar
    36    14    16    1
    37    16    17    2
    38    16    18    1
    39    14    15   ar
    40     8     1    1
    41    15    10   ar
    42    28    24    1
    43    38    31   ar
    44     4     9    1
    45    21    22    1
@<TRIPOS>MOLECULE
*****
 42 45 0 0 0
SMALL
GASTEIGER

@<TRIPOS>ATOM
      1 C         142.1291  142.4363  159.0325 C.2     1  UNL1        0.0706
      2 C         142.3758  141.3932  157.9832 C.2     1  UNL1        0.0283
      3 C         142.2121  141.7357  156.5320 C.3     1  UNL1        0.0470
      4 N         142.7861  140.0075  158.3851 N.pl3   1  UNL1       -0.3193
      5 C         142.9498  139.6649  159.8362 C.2     1  UNL1        0.0264
      6 C         143.3602  138.2792  160.2381 C.3     1  UNL1        0.0470
      7 C         142.7031  140.7080  160.8855 C.2     1  UNL1        0.0485
      8 C         142.2928  142.0937  160.4836 C.3     1  UNL1        0.0795
      9 H         142.9480  139.3228  157.6964 H       1  UNL1        0.1516
     10 C         142.0461  143.1368  161.5330 C.ar    1  UNL1       -0.0078
     11 C         143.1945  143.9209  162.0956 C.ar    1  UNL1       -0.0032
     12 C         142.9479  144.9640  163.1449 C.ar    1  UNL1        0.0060
     13 C         141.5528  145.2231  163.6317 C.ar    1  UNL1        0.0752
     14 C         140.4045  144.4391  163.0690 C.ar    1  UNL1        0.2898
     15 C         140.6511  143.3959  162.0196 C.ar    1  UNL1        0.0716
     16 N         139.0095  144.6981  163.5557 N.pl3   1  UNL1        0.0809
     17 O         137.8730  144.7568  162.5784 O.2     1  UNL1        0.0415
     18 O         138.7510  144.8985  165.0195 O.co2   1  UNL1       -0.5760
     19 C         142.8668  140.3655  162.3367 C.2     1  UNL1        0.2434
     20 O         141.7449  139.7064  163.0829 O.2     1  UNL1       -0.2704
     21 N         144.1524  140.6821  163.0416 N.am    1  UNL1       -0.3010
     22 H         144.8888  141.1147  162.5519 H       1  UNL1        0.1497
     23 C         144.3162  140.3396  164.4928 C.3     1  UNL1        0.0911
     24 C         143.3018  140.8088  165.4932 C.3     1  UNL1        0.0370
     25 C         143.1242  142.2185  165.9739 C.3     1  UNL1        0.0204
     26 C         141.9996  142.2317  166.9664 C.3     1  UNL1        0.0722
     27 N         141.4821  140.8301  167.0991 N.3     1  UNL1       -0.2723
     28 C         142.2869  139.9507  166.1886 C.3     1  UNL1        0.0738
     29 C         140.3573  140.3858  167.9865 C.3     1  UNL1        0.0768
     30 C         139.1882  139.6488  167.4033 C.3     1  UNL1        0.0437
     31 C         138.8518  139.8057  165.9500 C.ar    1  UNL1       -0.0199
     32 C         138.4917  141.1559  165.4050 C.ar    1  UNL1       -0.0033
     33 C         138.1554  141.3127  163.9516 C.ar    1  UNL1        0.0119
     34 C         138.1792  140.1193  163.0432 C.ar    1  UNL1        0.0682
     35 CL        137.8429  140.2762  161.5899 Cl      1  UNL1       -0.0814
     36 C         138.5393  138.7690  163.5882 C.ar    1  UNL1        0.0679
     37 CL        138.5631  137.5756  162.6799 Cl      1  UNL1       -0.0814
     38 C         138.8757  138.6121  165.0417 C.ar    1  UNL1        0.0080
     39 C         141.7187  143.8220  158.6306 C.2     1  UNL1        0.3388
     40 O         142.7613  144.8366  158.2652 O.2     1  UNL1       -0.2452
     41 C         139.2184  143.1199  158.5576 C.3     1  UNL1        0.2559
     42 O         140.2659  144.1930  158.5943 O.3     1  UNL1       -0.4415
@<TRIPOS>UNITY_ATOM_ATTR
16 1
charge 1
18 1
charge -1
@<TRIPOS>BOND
     1    41    42    1
     2    42    39    1
     3    39    40    2
     4    39     1    1
     5     1     2    2
     6     2     3    1
     7     2     4    1
     8     4     5    1
     9     5     6    1
    10     5     7    2
    11     7    19    1
    12    19    20    2
    13    19    21   am
    14    21    23    1
    15    24    23    1
    16    24    25    1
    17    25    26    1
    18    26    27    1
    19    27    29    1
    20    29    30    1
    21    30    31    1
    22    31    32   ar
    23    32    33   ar
    24    33    34   ar
    25    34    35    1
    26    34    36   ar
    27    36    37    1
    28    36    38   ar
    29    27    28    1
    30     7     8    1
    31     8    10    1
    32    10    11   ar
    33    11    12   ar
    34    12    13   ar
    35    13    14   ar
    36    14    16    1
    37    16    17    2
    38    16    18    1
    39    14    15   ar
    40     8     1    1
    41    15    10   ar
    42    28    24    1
    43    38    31   ar
    44     4     9    1
    45    21    22    1
@<TRIPOS>MOLECULE
*****
 42 45 0 0 0
SMALL
GASTEIGER

@<TRIPOS>ATOM
      1 C         139.6843  141.7379  158.2501 C.2     1  UNL1        0.0706
      2 C         139.9580  142.9927  157.4752 C.2     1  UNL1        0.0283
      3 C         140.0584  142.9436  155.9793 C.3     1  UNL1        0.0470
      4 N         140.1313  144.2966  158.1961 N.pl3   1  UNL1       -0.3193
      5 C         140.0309  144.3458  159.6919 C.2     1  UNL1        0.0264
      6 C         140.2042  145.6497  160.4128 C.3     1  UNL1        0.0470
      7 C         139.7572  143.0910  160.4668 C.2     1  UNL1        0.0485
      8 C         139.5839  141.7871  159.7459 C.3     1  UNL1        0.0795
      9 H         140.3109  145.1202  157.6874 H       1  UNL1        0.1516
     10 C         139.3102  140.5322  160.5209 C.ar    1  UNL1       -0.0078
     11 C         137.8969  140.0823  160.7449 C.ar    1  UNL1       -0.0032
     12 C         137.6232  138.8275  161.5198 C.ar    1  UNL1        0.0060
     13 C         138.7628  138.0226  162.0708 C.ar    1  UNL1        0.0752
     14 C         140.1761  138.4725  161.8468 C.ar    1  UNL1        0.2898
     15 C         140.4498  139.7274  161.0718 C.ar    1  UNL1        0.0716
     16 N         141.3156  137.6677  162.3978 N.pl3   1  UNL1        0.0809
     17 O         141.1142  136.8211  163.6195 O.2     1  UNL1        0.0415
     18 O         142.6566  137.7094  161.7269 O.co2   1  UNL1       -0.5760
     19 C         139.6568  143.1401  161.9627 C.2     1  UNL1        0.2434
     20 O         140.9027  143.1647  162.7976 O.2     1  UNL1       -0.2704
     21 N         138.3105  143.1646  162.6236 N.am    1  UNL1       -0.3010
     22 H         137.4928  143.1484  162.0756 H       1  UNL1        0.1497
     23 C         138.2101  143.2137  164.1194 C.3     1  UNL1        0.0911
     24 C         138.6688  142.0453  164.9406 C.3     1  UNL1        0.0370
     25 C         138.1965  140.6287  164.7994 C.3     1  UNL1        0.0204
     26 C         138.9162  139.7962  165.8188 C.3     1  UNL1        0.0722
     27 N         139.8333  140.6985  166.5901 N.3     1  UNL1       -0.2723
     28 C         139.6804  142.0885  166.0474 C.3     1  UNL1        0.0738
     29 C         140.7435  140.2836  167.7079 C.3     1  UNL1        0.0768
     30 C         142.0513  139.6159  167.4016 C.3     1  UNL1        0.0437
     31 C         142.9392  140.1644  166.3242 C.ar    1  UNL1       -0.0199
     32 C         143.5269  139.2440  165.2959 C.ar    1  UNL1       -0.0033
     33 C         144.4148  139.7925  164.2185 C.ar    1  UNL1        0.0119
     34 C         144.7150  141.2613  164.1694 C.ar    1  UNL1        0.0682
     35 CL        145.6029  141.8097  163.0920 Cl      1  UNL1       -0.0814
     36 C         144.1273  142.1817  165.1978 C.ar    1  UNL1        0.0679
     37 CL        144.4275  143.6505  165.1487 Cl      1  UNL1       -0.0814
     38 C         143.2394  141.6332  166.2752 C.ar    1  UNL1        0.0080
     39 C         139.5110  140.4339  157.5292 C.2     1  UNL1        0.3388
     40 O         140.7137  139.6264  157.1402 O.2     1  UNL1       -0.2452
     41 C         137.0147  140.9137  156.9926 C.3     1  UNL1        0.2559
     42 O         138.1350  139.9376  157.1973 O.3     1  UNL1       -0.4415
@<TRIPOS>UNITY_ATOM_ATTR
16 1
charge 1
18 1
charge -1
@<TRIPOS>BOND
     1    41    42    1
     2    42    39    1
     3    39    40    2
     4    39     1    1
     5     1     2    2
     6     2     3    1
     7     2     4    1
     8     4     5    1
     9     5     6    1
    10     5     7    2
    11     7    19    1
    12    19    20    2
    13    19    21   am
    14    21    23    1
    15    24    23    1
    16    24    25    1
    17    25    26    1
    18    26    27    1
    19    27    29    1
    20    29    30    1
    21    30    31    1
    22    31    32   ar
    23    32    33   ar
    24    33    34   ar
    25    34    35    1
    26    34    36   ar
    27    36    37    1
    28    36    38   ar
    29    27    28    1
    30     7     8    1
    31     8    10    1
    32    10    11   ar
    33    11    12   ar
    34    12    13   ar
    35    13    14   ar
    36    14    16    1
    37    16    17    2
    38    16    18    1
    39    14    15   ar
    40     8     1    1
    41    15    10   ar
    42    28    24    1
    43    38    31   ar
    44     4     9    1
    45    21    22    1
@<TRIPOS>MOLECULE
*****
 42 45 0 0 0
SMALL
GASTEIGER

@<TRIPOS>ATOM
      1 C         141.3833  144.3172  157.7065 C.2     1  UNL1        0.0706
      2 C         142.3936  144.1436  156.6115 C.2     1  UNL1        0.0283
      3 C         142.0762  144.6010  155.2186 C.3     1  UNL1        0.0470
      4 N         143.7215  143.5127  156.9094 N.pl3   1  UNL1       -0.3193
      5 C         144.0390  143.0553  158.3022 C.2     1  UNL1        0.0264
      6 C         145.3668  142.4244  158.6000 C.3     1  UNL1        0.0470
      7 C         143.0286  143.2289  159.3971 C.2     1  UNL1        0.0485
      8 C         141.7008  143.8598  159.0993 C.3     1  UNL1        0.0795
      9 H         144.3846  143.3988  156.1907 H       1  UNL1        0.1516
     10 C         140.6904  144.0333  160.1944 C.ar    1  UNL1       -0.0078
     11 C         140.6014  145.3357  160.9333 C.ar    1  UNL1       -0.0032
     12 C         139.5911  145.5092  162.0283 C.ar    1  UNL1        0.0060
     13 C         138.6696  144.3804  162.3844 C.ar    1  UNL1        0.0752
     14 C         138.7586  143.0781  161.6455 C.ar    1  UNL1        0.2898
     15 C         139.7690  142.9046  160.5504 C.ar    1  UNL1        0.0716
     16 N         137.8372  141.9493  162.0016 N.pl3   1  UNL1        0.0809
     17 O         136.9660  142.0477  163.2187 O.2     1  UNL1        0.0415
     18 O         137.7869  140.7221  161.1405 O.co2   1  UNL1       -0.5760
     19 C         143.3461  142.7715  160.7900 C.2     1  UNL1        0.2434
     20 O         142.9948  141.3781  161.2203 O.2     1  UNL1       -0.2704
     21 N         144.0149  143.7075  161.7526 N.am    1  UNL1       -0.3010
     22 H         144.2454  144.6220  161.4703 H       1  UNL1        0.1497
     23 C         144.3323  143.2502  163.1455 C.3     1  UNL1        0.0911
     24 C         143.2326  143.0993  164.1543 C.3     1  UNL1        0.0370
     25 C         141.8391  143.6396  164.0270 C.3     1  UNL1        0.0204
     26 C         141.0785  143.2559  165.2616 C.3     1  UNL1        0.0722
     27 N         142.0019  142.4785  166.1520 N.3     1  UNL1       -0.2723
     28 C         143.3332  142.3818  165.4677 C.3     1  UNL1        0.0738
     29 C         141.6550  141.8995  167.4916 C.3     1  UNL1        0.0768
     30 C         141.2055  140.4724  167.5982 C.3     1  UNL1        0.0437
     31 C         140.5409  139.8062  166.4302 C.ar    1  UNL1       -0.0199
     32 C         139.0934  140.0710  166.1396 C.ar    1  UNL1       -0.0033
     33 C         138.4288  139.4047  164.9714 C.ar    1  UNL1        0.0119
     34 C         139.2117  138.4736  164.0940 C.ar    1  UNL1        0.0682
     35 CL        138.5471  137.8073  162.9259 Cl      1  UNL1       -0.0814
     36 C         140.6593  138.2087  164.3846 C.ar    1  UNL1        0.0679
     37 CL        141.4423  137.2776  163.5071 Cl      1  UNL1       -0.0814
     38 C         141.3239  138.8751  165.5527 C.ar    1  UNL1        0.0080
     39 C         140.0554  144.9481  157.4087 C.2     1  UNL1        0.3388
     40 O         139.8593  146.4197  157.6229 O.2     1  UNL1       -0.2452
     41 C         139.0549  142.6136  156.8619 C.3     1  UNL1        0.2559
     42 O         138.9236  144.1074  156.8966 O.3     1  UNL1       -0.4415
@<TRIPOS>UNITY_ATOM_ATTR
16 1
charge 1
18 1
charge -1
@<TRIPOS>BOND
     1    41    42    1
     2    42    39    1
     3    39    40    2
     4    39     1    1
     5     1     2    2
     6     2     3    1
     7     2     4    1
     8     4     5    1
     9     5     6    1
    10     5     7    2
    11     7    19    1
    12    19    20    2
    13    19    21   am
    14    21    23    1
    15    24    23    1
    16    24    25    1
    17    25    26    1
    18    26    27    1
    19    27    29    1
    20    29    30    1
    21    30    31    1
    22    31    32   ar
    23    32    33   ar
    24    33    34   ar
    25    34    35    1
    26    34    36   ar
    27    36    37    1
    28    36    38   ar
    29    27    28    1
    30     7     8    1
    31     8    10    1
    32    10    11   ar
    33    11    12   ar
    34    12    13   ar
    35    13    14   ar
    36    14    16    1
    37    16    17    2
    38    16    18    1
    39    14    15   ar
    40     8     1    1
    41    15    10   ar
    42    28    24    1
    43    38    31   ar
    44     4     9    1
    45    21    22    1
