@<TRIPOS>MOLECULE
*****
 35 38 0 0 0
SMALL
GASTEIGER

@<TRIPOS>ATOM
      1 C         142.4227  137.9664  162.2675 C.ar    1  UNL1        0.1345
      2 C         140.9496  138.0865  162.5240 C.ar    1  UNL1        0.0494
      3 C         140.4584  138.6806  163.8107 C.ar    1  UNL1        0.0567
      4 C         141.4402  139.1546  164.8410 C.ar    1  UNL1        0.0740
      5 C         142.9132  139.0345  164.5845 C.ar    1  UNL1        0.1097
      6 N         143.4045  138.4404  163.2977 N.ar    1  UNL1       -0.2283
      7 N         142.9139  137.3723  160.9807 N.pl3   1  UNL1       -0.2821
      8 H         143.0870  136.4051  160.9196 H       1  UNL1        0.1551
      9 C         143.5968  140.0111  157.4002 C.ar    1  UNL1        0.1683
     10 C         143.0812  138.6147  157.2153 C.ar    1  UNL1        0.1299
     11 N         142.8536  137.7351  158.4088 N.ar    1  UNL1       -0.2251
     12 C         143.1415  138.2519  159.7872 C.ar    1  UNL1        0.1527
     13 C         143.6571  139.6483  159.9720 C.ar    1  UNL1        0.1340
     14 N         143.8847  140.5279  158.7785 N.ar    1  UNL1       -0.2290
     15 N         144.0520  141.7703  155.0131 N.1     1  UNL1       -0.1892
     16 C         143.8244  140.8907  156.2066 C.1     1  UNL1        0.1214
     17 N         138.9854  138.8008  164.0672 N.pl3   1  UNL1       -0.3301
     18 H         138.5952  138.4168  164.8855 H       1  UNL1        0.1469
     19 C         138.1067  139.5060  163.0769 C.3     1  UNL1        0.1185
     20 C         137.9833  141.0004  163.1147 C.3     1  UNL1        0.1503
     21 C         137.7702  141.7677  161.8435 C.3     1  UNL1        0.1003
     22 N         137.6468  143.2621  161.8813 N.3     1  UNL1       -0.2933
     23 C         137.7363  143.9893  163.1902 C.3     1  UNL1        0.1011
     24 C         137.9493  143.2220  164.4614 C.3     1  UNL1        0.1592
     25 O         138.0728  141.7275  164.4236 O.3     1  UNL1       -0.3516
     26 H         136.7388  143.4928  161.4778 H       1  UNL1        0.1234
     27 C         140.9489  139.7487  166.1278 C.1     1  UNL1       -0.0593
     28 C         140.4576  140.3428  167.4145 C.1     1  UNL1       -0.0610
     29 C         139.9663  140.9369  168.7011 C.3     1  UNL1        0.1416
     30 O         139.2598  139.6228  168.8554 O.3     1  UNL1       -0.3753
     31 C         139.3273  141.2563  170.0201 C.3     1  UNL1        0.0395
     32 C         139.7416  142.6436  170.4120 C.3     1  UNL1        0.0035
     33 C         140.6367  143.1818  169.3353 C.3     1  UNL1        0.0035
     34 C         140.7755  142.1269  168.2780 C.3     1  UNL1        0.0395
     35 H         138.7611  139.6195  169.6873 H       1  UNL1        0.2114
@<TRIPOS>BOND
     1    15    16    3
     2    16     9    1
     3     9    10   ar
     4    10    11   ar
     5    11    12   ar
     6    12     7    1
     7     7     1    1
     8     1     2   ar
     9     2     3   ar
    10     3    17    1
    11    17    19    1
    12    20    19    1
    13    20    21    1
    14    21    22    1
    15    22    23    1
    16    23    24    1
    17    24    25    1
    18     3     4   ar
    19     4    27    1
    20    27    28    3
    21    28    29    1
    22    29    30    1
    23    29    31    1
    24    31    32    1
    25    32    33    1
    26    33    34    1
    27     4     5   ar
    28     5     6   ar
    29    12    13   ar
    30    13    14   ar
    31    14     9   ar
    32     6     1   ar
    33    25    20    1
    34    34    29    1
    35     7     8    1
    36    17    18    1
    37    22    26    1
    38    30    35    1
@<TRIPOS>MOLECULE
*****
 35 38 0 0 0
SMALL
GASTEIGER

@<TRIPOS>ATOM
      1 C         143.3440  138.6258  165.5851 C.ar    1  UNL1        0.1345
      2 C         142.1554  138.0416  164.8808 C.ar    1  UNL1        0.0494
      3 C         142.0702  138.0934  163.3842 C.ar    1  UNL1        0.0567
      4 C         143.1736  138.7294  162.5917 C.ar    1  UNL1        0.0740
      5 C         144.3622  139.3135  163.2959 C.ar    1  UNL1        0.1097
      6 N         144.4475  139.2618  164.7926 N.ar    1  UNL1       -0.2283
      7 N         143.4292  138.5740  167.0817 N.pl3   1  UNL1       -0.2821
      8 H         144.0295  137.9274  167.5185 H       1  UNL1        0.1551
      9 C         140.9408  141.3741  169.5753 C.ar    1  UNL1        0.1683
     10 C         141.7794  140.3226  170.2394 C.ar    1  UNL1        0.1299
     11 N         142.6089  139.3892  169.4082 N.ar    1  UNL1       -0.2251
     12 C         142.5997  139.5074  167.9129 C.ar    1  UNL1        0.1527
     13 C         141.7611  140.5588  167.2488 C.ar    1  UNL1        0.1340
     14 N         140.9317  141.4922  168.0800 N.ar    1  UNL1       -0.2290
     15 N         139.2819  143.2407  171.2376 N.1     1  UNL1       -0.1892
     16 C         140.1114  142.3074  170.4065 C.1     1  UNL1        0.1214
     17 N         140.8816  137.5092  162.6799 N.pl3   1  UNL1       -0.3301
     18 H         140.9979  137.0468  161.8185 H       1  UNL1        0.1469
     19 C         139.5157  137.6294  163.2881 C.3     1  UNL1        0.1185
     20 C         138.7875  138.9400  163.2434 C.3     1  UNL1        0.1503
     21 C         137.8980  139.2646  162.0800 C.3     1  UNL1        0.1003
     22 N         137.1699  140.5752  162.0354 N.3     1  UNL1       -0.2933
     23 C         137.3312  141.5614  163.1542 C.3     1  UNL1        0.1011
     24 C         138.2207  141.2368  164.3175 C.3     1  UNL1        0.1592
     25 O         138.9489  139.9261  164.3622 O.3     1  UNL1       -0.3516
     26 H         136.1752  140.3575  161.9759 H       1  UNL1        0.1234
     27 C         143.0884  138.7811  161.0950 C.1     1  UNL1       -0.0593
     28 C         143.0032  138.8328  159.5983 C.1     1  UNL1       -0.0610
     29 C         142.9179  138.8846  158.1017 C.3     1  UNL1        0.1416
     30 O         144.2197  139.6218  158.2102 O.3     1  UNL1       -0.3753
     31 C         143.1049  139.0904  156.6277 C.3     1  UNL1        0.0395
     32 C         141.9365  138.4696  155.9211 C.3     1  UNL1        0.0035
     33 C         141.0273  137.8800  156.9584 C.3     1  UNL1        0.0035
     34 C         141.6340  138.1365  158.3060 C.3     1  UNL1        0.0395
     35 H         144.5315  139.8597  157.3230 H       1  UNL1        0.2114
@<TRIPOS>BOND
     1    15    16    3
     2    16     9    1
     3     9    10   ar
     4    10    11   ar
     5    11    12   ar
     6    12     7    1
     7     7     1    1
     8     1     2   ar
     9     2     3   ar
    10     3    17    1
    11    17    19    1
    12    20    19    1
    13    20    21    1
    14    21    22    1
    15    22    23    1
    16    23    24    1
    17    24    25    1
    18     3     4   ar
    19     4    27    1
    20    27    28    3
    21    28    29    1
    22    29    30    1
    23    29    31    1
    24    31    32    1
    25    32    33    1
    26    33    34    1
    27     4     5   ar
    28     5     6   ar
    29    12    13   ar
    30    13    14   ar
    31    14     9   ar
    32     6     1   ar
    33    25    20    1
    34    34    29    1
    35     7     8    1
    36    17    18    1
    37    22    26    1
    38    30    35    1
@<TRIPOS>MOLECULE
*****
 35 38 0 0 0
SMALL
GASTEIGER

@<TRIPOS>ATOM
      1 C         143.2172  138.6911  165.7831 C.ar    1  UNL1        0.1345
      2 C         144.2174  139.5249  165.0384 C.ar    1  UNL1        0.0494
      3 C         144.1773  139.5840  163.5401 C.ar    1  UNL1        0.0567
      4 C         143.1371  138.8094  162.7865 C.ar    1  UNL1        0.0740
      5 C         142.1369  137.9757  163.5311 C.ar    1  UNL1        0.1097
      6 N         142.1770  137.9165  165.0295 N.ar    1  UNL1       -0.2283
      7 N         143.2572  138.6320  167.2814 N.pl3   1  UNL1       -0.2821
      8 H         143.8233  137.9648  167.7327 H       1  UNL1        0.1551
      9 C         140.7900  141.5040  169.7133 C.ar    1  UNL1        0.1683
     10 C         142.0987  141.0013  170.2468 C.ar    1  UNL1        0.1299
     11 N         142.9211  140.0440  169.4362 N.ar    1  UNL1       -0.2251
     12 C         142.4348  139.5893  168.0920 C.ar    1  UNL1        0.1527
     13 C         141.1262  140.0920  167.5585 C.ar    1  UNL1        0.1340
     14 N         140.3037  141.0493  168.3692 N.ar    1  UNL1       -0.2290
     15 N         139.1452  143.4187  171.3346 N.1     1  UNL1       -0.1892
     16 C         139.9676  142.4613  170.5240 C.1     1  UNL1        0.1214
     17 N         145.1776  140.4178  162.7954 N.pl3   1  UNL1       -0.3301
     18 H         145.6119  140.0606  161.9873 H       1  UNL1        0.1469
     19 C         145.5160  141.7957  163.2820 C.3     1  UNL1        0.1185
     20 C         144.4574  142.8576  163.3234 C.3     1  UNL1        0.1503
     21 C         144.3757  143.8783  162.2273 C.3     1  UNL1        0.1003
     22 N         143.3171  144.9401  162.2687 N.3     1  UNL1       -0.2933
     23 C         142.3401  144.9813  163.4062 C.3     1  UNL1        0.1011
     24 C         142.4217  143.9605  164.5023 C.3     1  UNL1        0.1592
     25 O         143.4804  142.8987  164.4608 O.3     1  UNL1       -0.3516
     26 H         142.7695  144.8435  161.4135 H       1  UNL1        0.1234
     27 C         143.0971  138.8686  161.2881 C.1     1  UNL1       -0.0593
     28 C         143.0570  138.9278  159.7899 C.1     1  UNL1       -0.0610
     29 C         143.0170  138.9870  158.2916 C.3     1  UNL1        0.1416
     30 O         144.2262  139.8601  158.4508 O.3     1  UNL1       -0.3753
     31 C         143.2298  139.2287  156.8266 C.3     1  UNL1        0.0395
     32 C         142.1604  138.4926  156.0752 C.3     1  UNL1        0.0035
     33 C         141.2866  137.7959  157.0759 C.3     1  UNL1        0.0035
     34 C         141.8161  138.1015  158.4456 C.3     1  UNL1        0.0395
     35 H         144.5398  140.1405  157.5767 H       1  UNL1        0.2114
@<TRIPOS>BOND
     1    15    16    3
     2    16     9    1
     3     9    10   ar
     4    10    11   ar
     5    11    12   ar
     6    12     7    1
     7     7     1    1
     8     1     2   ar
     9     2     3   ar
    10     3    17    1
    11    17    19    1
    12    20    19    1
    13    20    21    1
    14    21    22    1
    15    22    23    1
    16    23    24    1
    17    24    25    1
    18     3     4   ar
    19     4    27    1
    20    27    28    3
    21    28    29    1
    22    29    30    1
    23    29    31    1
    24    31    32    1
    25    32    33    1
    26    33    34    1
    27     4     5   ar
    28     5     6   ar
    29    12    13   ar
    30    13    14   ar
    31    14     9   ar
    32     6     1   ar
    33    25    20    1
    34    34    29    1
    35     7     8    1
    36    17    18    1
    37    22    26    1
    38    30    35    1
@<TRIPOS>MOLECULE
*****
 35 38 0 0 0
SMALL
GASTEIGER

@<TRIPOS>ATOM
      1 C         143.4183  138.8822  161.4537 C.ar    1  UNL1        0.1345
      2 C         142.2690  138.1145  162.0368 C.ar    1  UNL1        0.0494
      3 C         141.9140  138.2802  163.4847 C.ar    1  UNL1        0.0567
      4 C         142.7082  139.2135  164.3496 C.ar    1  UNL1        0.0740
      5 C         143.8574  139.9812  163.7667 C.ar    1  UNL1        0.1097
      6 N         144.2125  139.8156  162.3187 N.ar    1  UNL1       -0.2283
      7 N         143.7733  138.7166  160.0058 N.pl3   1  UNL1       -0.2821
      8 H         144.7107  138.7987  159.7164 H       1  UNL1        0.1551
      9 C         140.5538  137.8444  156.9852 C.ar    1  UNL1        0.1683
     10 C         141.7939  137.0014  157.0242 C.ar    1  UNL1        0.1299
     11 N         142.8671  137.2922  158.0311 N.ar    1  UNL1       -0.2251
     12 C         142.7001  138.4258  158.9990 C.ar    1  UNL1        0.1527
     13 C         141.4600  139.2688  158.9600 C.ar    1  UNL1        0.1340
     14 N         140.3869  138.9780  157.9531 N.ar    1  UNL1       -0.2290
     15 N         138.4075  137.2629  154.9715 N.1     1  UNL1       -0.1892
     16 C         139.4807  137.5536  155.9784 C.1     1  UNL1        0.1214
     17 N         140.7647  137.5124  164.0677 N.pl3   1  UNL1       -0.3301
     18 H         140.9062  136.9343  164.8519 H       1  UNL1        0.1469
     19 C         139.3998  137.6256  163.4558 C.3     1  UNL1        0.1185
     20 C         138.7180  138.9598  163.3847 C.3     1  UNL1        0.1503
     21 C         137.8659  139.3044  162.1993 C.3     1  UNL1        0.1003
     22 N         137.1841  140.6385  162.1283 N.3     1  UNL1       -0.2933
     23 C         137.3544  141.6282  163.2426 C.3     1  UNL1        0.1011
     24 C         138.2065  141.2835  164.4280 C.3     1  UNL1        0.1592
     25 O         138.8883  139.9493  164.4991 O.3     1  UNL1       -0.3516
     26 H         136.1841  140.4543  162.0484 H       1  UNL1        0.1234
     27 C         142.3531  139.3791  165.7976 C.1     1  UNL1       -0.0593
     28 C         141.9980  139.5447  167.2455 C.1     1  UNL1       -0.0610
     29 C         141.6430  139.7103  168.6934 C.3     1  UNL1        0.1416
     30 O         143.0629  139.2871  168.9275 O.3     1  UNL1       -0.3753
     31 C         141.5848  139.7874  170.1903 C.3     1  UNL1        0.0395
     32 C         140.2032  140.2236  170.5786 C.3     1  UNL1        0.0035
     33 C         139.4074  140.4161  169.3217 C.3     1  UNL1        0.0035
     34 C         140.2974  140.0988  168.1567 C.3     1  UNL1        0.0395
     35 H         143.2423  139.2702  169.8806 H       1  UNL1        0.2114
@<TRIPOS>BOND
     1    15    16    3
     2    16     9    1
     3     9    10   ar
     4    10    11   ar
     5    11    12   ar
     6    12     7    1
     7     7     1    1
     8     1     2   ar
     9     2     3   ar
    10     3    17    1
    11    17    19    1
    12    20    19    1
    13    20    21    1
    14    21    22    1
    15    22    23    1
    16    23    24    1
    17    24    25    1
    18     3     4   ar
    19     4    27    1
    20    27    28    3
    21    28    29    1
    22    29    30    1
    23    29    31    1
    24    31    32    1
    25    32    33    1
    26    33    34    1
    27     4     5   ar
    28     5     6   ar
    29    12    13   ar
    30    13    14   ar
    31    14     9   ar
    32     6     1   ar
    33    25    20    1
    34    34    29    1
    35     7     8    1
    36    17    18    1
    37    22    26    1
    38    30    35    1
@<TRIPOS>MOLECULE
*****
 35 38 0 0 0
SMALL
GASTEIGER

@<TRIPOS>ATOM
      1 C         143.1005  142.8970  164.4078 C.ar    1  UNL1        0.1345
      2 C         142.2856  144.1484  164.2654 C.ar    1  UNL1        0.0494
      3 C         141.9171  144.6523  162.9015 C.ar    1  UNL1        0.0567
      4 C         142.3635  143.9050  161.6800 C.ar    1  UNL1        0.0740
      5 C         143.1783  142.6537  161.8223 C.ar    1  UNL1        0.1097
      6 N         143.5469  142.1497  163.1862 N.ar    1  UNL1       -0.2283
      7 N         143.4690  142.3931  165.7717 N.pl3   1  UNL1       -0.2821
      8 H         144.4112  142.3887  166.0569 H       1  UNL1        0.1551
      9 C         140.2674  140.9013  168.5600 C.ar    1  UNL1        0.1683
     10 C         140.1163  140.7195  167.0787 C.ar    1  UNL1        0.1299
     11 N         141.1834  141.2168  166.1493 N.ar    1  UNL1       -0.2251
     12 C         142.4018  141.8958  166.7011 C.ar    1  UNL1        0.1527
     13 C         142.5529  142.0776  168.1823 C.ar    1  UNL1        0.1340
     14 N         141.4857  141.5803  169.1118 N.ar    1  UNL1       -0.2290
     15 N         138.1330  139.9067  170.4188 N.1     1  UNL1       -0.1892
     16 C         139.2002  140.4040  169.4894 C.1     1  UNL1        0.1214
     17 N         141.1023  145.9036  162.7592 N.pl3   1  UNL1       -0.3301
     18 H         141.5302  146.7842  162.8626 H       1  UNL1        0.1469
     19 C         139.6353  145.8133  162.4592 C.3     1  UNL1        0.1185
     20 C         138.9002  144.5266  162.6913 C.3     1  UNL1        0.1503
     21 C         138.3910  144.1904  164.0616 C.3     1  UNL1        0.1003
     22 N         137.6559  142.9037  164.2938 N.3     1  UNL1       -0.2933
     23 C         137.4299  141.9531  163.1556 C.3     1  UNL1        0.1011
     24 C         137.9391  142.2893  161.7853 C.3     1  UNL1        0.1592
     25 O         138.6743  143.5761  161.5532 O.3     1  UNL1       -0.3516
     26 H         136.7358  143.1518  164.6574 H       1  UNL1        0.1234
     27 C         141.9950  144.4090  160.3160 C.1     1  UNL1       -0.0593
     28 C         141.6265  144.9130  158.9522 C.1     1  UNL1       -0.0610
     29 C         141.2579  145.4170  157.5883 C.3     1  UNL1        0.1416
     30 O         142.4747  146.2790  157.7505 O.3     1  UNL1       -0.3753
     31 C         141.1438  146.1012  156.2584 C.3     1  UNL1        0.0395
     32 C         139.9335  145.5567  155.5593 C.3     1  UNL1        0.0035
     33 C         139.2996  144.5359  156.4572 C.3     1  UNL1        0.0035
     34 C         140.1182  144.4496  157.7112 C.3     1  UNL1        0.0395
     35 H         142.5891  146.8290  156.9598 H       1  UNL1        0.2114
@<TRIPOS>BOND
     1    15    16    3
     2    16     9    1
     3     9    10   ar
     4    10    11   ar
     5    11    12   ar
     6    12     7    1
     7     7     1    1
     8     1     2   ar
     9     2     3   ar
    10     3    17    1
    11    17    19    1
    12    20    19    1
    13    20    21    1
    14    21    22    1
    15    22    23    1
    16    23    24    1
    17    24    25    1
    18     3     4   ar
    19     4    27    1
    20    27    28    3
    21    28    29    1
    22    29    30    1
    23    29    31    1
    24    31    32    1
    25    32    33    1
    26    33    34    1
    27     4     5   ar
    28     5     6   ar
    29    12    13   ar
    30    13    14   ar
    31    14     9   ar
    32     6     1   ar
    33    25    20    1
    34    34    29    1
    35     7     8    1
    36    17    18    1
    37    22    26    1
    38    30    35    1
@<TRIPOS>MOLECULE
*****
 35 38 0 0 0
SMALL
GASTEIGER

@<TRIPOS>ATOM
      1 C         137.8825  140.4217  162.6378 C.ar    1  UNL1        0.1345
      2 C         137.7782  141.8644  163.0350 C.ar    1  UNL1        0.0494
      3 C         138.4542  142.3496  164.2830 C.ar    1  UNL1        0.0567
      4 C         139.2346  141.3920  165.1339 C.ar    1  UNL1        0.0740
      5 C         139.3390  139.9494  164.7368 C.ar    1  UNL1        0.1097
      6 N         138.6630  139.4642  163.4887 N.ar    1  UNL1       -0.2283
      7 N         137.2065  139.9366  161.3898 N.pl3   1  UNL1       -0.2821
      8 H         136.2353  139.7755  161.3869 H       1  UNL1        0.1551
      9 C         139.6177  139.2172  157.6590 C.ar    1  UNL1        0.1683
     10 C         138.4584  140.1686  157.6310 C.ar    1  UNL1        0.1299
     11 N         137.6547  140.4084  158.8746 N.ar    1  UNL1       -0.2251
     12 C         138.0102  139.6968  160.1462 C.ar    1  UNL1        0.1527
     13 C         139.1696  138.7454  160.1743 C.ar    1  UNL1        0.1340
     14 N         139.9733  138.5056  158.9307 N.ar    1  UNL1       -0.2290
     15 N         141.2252  138.7376  155.1718 N.1     1  UNL1       -0.1892
     16 C         140.4214  138.9774  156.4154 C.1     1  UNL1        0.1214
     17 N         138.3498  143.7923  164.6801 N.pl3   1  UNL1       -0.3301
     18 H         137.8498  144.0451  165.4896 H       1  UNL1        0.1469
     19 C         139.0074  144.8499  163.8439 C.3     1  UNL1        0.1185
     20 C         140.4564  144.7231  163.4777 C.3     1  UNL1        0.1503
     21 C         140.9123  145.0665  162.0905 C.3     1  UNL1        0.1003
     22 N         142.3613  144.9397  161.7243 N.3     1  UNL1       -0.2933
     23 C         143.3546  144.4697  162.7454 C.3     1  UNL1        0.1011
     24 C         142.8988  144.1263  164.1326 C.3     1  UNL1        0.1592
     25 O         141.4496  144.2531  164.4987 O.3     1  UNL1       -0.3516
     26 H         142.6691  145.8624  161.4171 H       1  UNL1        0.1234
     27 C         139.9107  141.8773  166.3820 C.1     1  UNL1       -0.0593
     28 C         140.5867  142.3625  167.6300 C.1     1  UNL1       -0.0610
     29 C         141.2627  142.8477  168.8779 C.3     1  UNL1        0.1416
     30 O         139.9705  143.5742  169.1069 O.3     1  UNL1       -0.3753
     31 C         141.6685  143.4849  170.1738 C.3     1  UNL1        0.0395
     32 C         143.0702  143.0507  170.4848 C.3     1  UNL1        0.0035
     33 C         143.5307  142.1452  169.3812 C.3     1  UNL1        0.0035
     34 C         142.4135  142.0198  168.3881 C.3     1  UNL1        0.0395
     35 H         140.0236  144.0749  169.9361 H       1  UNL1        0.2114
@<TRIPOS>BOND
     1    15    16    3
     2    16     9    1
     3     9    10   ar
     4    10    11   ar
     5    11    12   ar
     6    12     7    1
     7     7     1    1
     8     1     2   ar
     9     2     3   ar
    10     3    17    1
    11    17    19    1
    12    20    19    1
    13    20    21    1
    14    21    22    1
    15    22    23    1
    16    23    24    1
    17    24    25    1
    18     3     4   ar
    19     4    27    1
    20    27    28    3
    21    28    29    1
    22    29    30    1
    23    29    31    1
    24    31    32    1
    25    32    33    1
    26    33    34    1
    27     4     5   ar
    28     5     6   ar
    29    12    13   ar
    30    13    14   ar
    31    14     9   ar
    32     6     1   ar
    33    25    20    1
    34    34    29    1
    35     7     8    1
    36    17    18    1
    37    22    26    1
    38    30    35    1
@<TRIPOS>MOLECULE
*****
 35 38 0 0 0
SMALL
GASTEIGER

@<TRIPOS>ATOM
      1 C         141.5489  145.0108  161.2819 C.ar    1  UNL1        0.1345
      2 C         140.5091  145.3371  162.3128 C.ar    1  UNL1        0.0494
      3 C         140.5442  144.6637  163.6527 C.ar    1  UNL1        0.0567
      4 C         141.6189  143.6641  163.9618 C.ar    1  UNL1        0.0740
      5 C         142.6586  143.3377  162.9311 C.ar    1  UNL1        0.1097
      6 N         142.6236  144.0111  161.5911 N.ar    1  UNL1       -0.2283
      7 N         141.5139  145.6841  159.9421 N.pl3   1  UNL1       -0.2821
      8 H         142.0410  146.5012  159.7878 H       1  UNL1        0.1551
      9 C         138.9994  143.9696  156.6273 C.ar    1  UNL1        0.1683
     10 C         139.1970  143.1947  157.8963 C.ar    1  UNL1        0.1299
     11 N         140.0352  143.7662  159.0012 N.ar    1  UNL1       -0.2251
     12 C         140.6757  145.1126  158.8371 C.ar    1  UNL1        0.1527
     13 C         140.4781  145.8874  157.5681 C.ar    1  UNL1        0.1340
     14 N         139.6399  145.3159  156.4632 N.ar    1  UNL1       -0.2290
     15 N         137.3231  142.8265  154.4174 N.1     1  UNL1       -0.1892
     16 C         138.1613  143.3980  155.5223 C.1     1  UNL1        0.1214
     17 N         139.5044  144.9901  164.6835 N.pl3   1  UNL1       -0.3301
     18 H         139.7082  145.6310  165.4025 H       1  UNL1        0.1469
     19 C         138.1542  144.3399  164.6188 C.3     1  UNL1        0.1185
     20 C         138.0317  142.9064  164.1945 C.3     1  UNL1        0.1503
     21 C         137.4692  142.5690  162.8455 C.3     1  UNL1        0.1003
     22 N         137.3466  141.1355  162.4212 N.3     1  UNL1       -0.2933
     23 C         137.7865  140.0394  163.3458 C.3     1  UNL1        0.1011
     24 C         138.3490  140.3768  164.6948 C.3     1  UNL1        0.1592
     25 O         138.4716  141.8103  165.1191 O.3     1  UNL1       -0.3516
     26 H         137.8911  141.0344  161.5646 H       1  UNL1        0.1234
     27 C         141.6539  142.9907  165.3018 C.1     1  UNL1       -0.0593
     28 C         141.6889  142.3174  166.6417 C.1     1  UNL1       -0.0610
     29 C         141.7238  141.6441  167.9816 C.3     1  UNL1        0.1416
     30 O         140.4237  141.0422  167.5375 O.3     1  UNL1       -0.3753
     31 C         141.4870  140.8450  169.2287 C.3     1  UNL1        0.0395
     32 C         142.6335  141.0938  170.1634 C.3     1  UNL1        0.0035
     33 C         143.5789  142.0467  169.4940 C.3     1  UNL1        0.0035
     34 C         143.0167  142.3868  168.1456 C.3     1  UNL1        0.0395
     35 H         140.0815  140.4611  168.2348 H       1  UNL1        0.2114
@<TRIPOS>BOND
     1    15    16    3
     2    16     9    1
     3     9    10   ar
     4    10    11   ar
     5    11    12   ar
     6    12     7    1
     7     7     1    1
     8     1     2   ar
     9     2     3   ar
    10     3    17    1
    11    17    19    1
    12    20    19    1
    13    20    21    1
    14    21    22    1
    15    22    23    1
    16    23    24    1
    17    24    25    1
    18     3     4   ar
    19     4    27    1
    20    27    28    3
    21    28    29    1
    22    29    30    1
    23    29    31    1
    24    31    32    1
    25    32    33    1
    26    33    34    1
    27     4     5   ar
    28     5     6   ar
    29    12    13   ar
    30    13    14   ar
    31    14     9   ar
    32     6     1   ar
    33    25    20    1
    34    34    29    1
    35     7     8    1
    36    17    18    1
    37    22    26    1
    38    30    35    1
@<TRIPOS>MOLECULE
*****
 35 38 0 0 0
SMALL
GASTEIGER

@<TRIPOS>ATOM
      1 C         143.8404  139.4295  161.1222 C.ar    1  UNL1        0.1345
      2 C         144.1916  140.7872  161.6547 C.ar    1  UNL1        0.0494
      3 C         143.9795  141.1015  163.1059 C.ar    1  UNL1        0.0567
      4 C         143.4162  140.0582  164.0247 C.ar    1  UNL1        0.0740
      5 C         143.0650  138.7006  163.4923 C.ar    1  UNL1        0.1097
      6 N         143.2771  138.3862  162.0410 N.ar    1  UNL1       -0.2283
      7 N         144.0525  139.1151  159.6709 N.pl3   1  UNL1       -0.2821
      8 H         144.9548  139.1737  159.2814 H       1  UNL1        0.1551
      9 C         140.5649  137.9046  157.0978 C.ar    1  UNL1        0.1683
     10 C         141.8953  137.2348  156.9212 C.ar    1  UNL1        0.1299
     11 N         143.0579  137.6383  157.7789 N.ar    1  UNL1       -0.2251
     12 C         142.8900  138.7116  158.8132 C.ar    1  UNL1        0.1527
     13 C         141.5595  139.3814  158.9898 C.ar    1  UNL1        0.1340
     14 N         140.3970  138.9779  158.1321 N.ar    1  UNL1       -0.2290
     15 N         138.2398  137.0976  155.3824 N.1     1  UNL1       -0.1892
     16 C         139.4023  137.5011  156.2401 C.1     1  UNL1        0.1214
     17 N         144.3307  142.4592  163.6384 N.pl3   1  UNL1       -0.3301
     18 H         144.5572  142.5713  164.5899 H       1  UNL1        0.1469
     19 C         144.3368  143.6460  162.7211 C.3     1  UNL1        0.1185
     20 C         143.0525  144.3497  162.3965 C.3     1  UNL1        0.1503
     21 C         142.3521  145.1559  163.4499 C.3     1  UNL1        0.1003
     22 N         141.0678  145.8595  163.1253 N.3     1  UNL1       -0.2933
     23 C         140.4838  145.7570  161.7474 C.3     1  UNL1        0.1011
     24 C         141.1842  144.9508  160.6941 C.3     1  UNL1        0.1592
     25 O         142.4686  144.2471  161.0187 O.3     1  UNL1       -0.3516
     26 H         141.2215  146.8514  163.3070 H       1  UNL1        0.1234
     27 C         143.2041  140.3726  165.4761 C.1     1  UNL1       -0.0593
     28 C         142.9921  140.6870  166.9273 C.1     1  UNL1       -0.0610
     29 C         142.7800  141.0014  168.3785 C.3     1  UNL1        0.1416
     30 O         143.0584  142.4121  167.9515 O.3     1  UNL1       -0.3753
     31 C         142.6262  141.6108  169.7405 C.3     1  UNL1        0.0395
     32 C         142.2971  140.5109  170.7059 C.3     1  UNL1        0.0035
     33 C         142.2475  139.2217  169.9406 C.3     1  UNL1        0.0035
     34 C         142.5460  139.5250  168.5022 C.3     1  UNL1        0.0395
     35 H         143.0062  142.9993  168.7218 H       1  UNL1        0.2114
@<TRIPOS>BOND
     1    15    16    3
     2    16     9    1
     3     9    10   ar
     4    10    11   ar
     5    11    12   ar
     6    12     7    1
     7     7     1    1
     8     1     2   ar
     9     2     3   ar
    10     3    17    1
    11    17    19    1
    12    20    19    1
    13    20    21    1
    14    21    22    1
    15    22    23    1
    16    23    24    1
    17    24    25    1
    18     3     4   ar
    19     4    27    1
    20    27    28    3
    21    28    29    1
    22    29    30    1
    23    29    31    1
    24    31    32    1
    25    32    33    1
    26    33    34    1
    27     4     5   ar
    28     5     6   ar
    29    12    13   ar
    30    13    14   ar
    31    14     9   ar
    32     6     1   ar
    33    25    20    1
    34    34    29    1
    35     7     8    1
    36    17    18    1
    37    22    26    1
    38    30    35    1
@<TRIPOS>MOLECULE
*****
 35 38 0 0 0
SMALL
GASTEIGER

@<TRIPOS>ATOM
      1 C         142.9333  137.8828  161.9348 C.ar    1  UNL1        0.1345
      2 C         143.9805  138.8312  162.4388 C.ar    1  UNL1        0.0494
      3 C         143.9179  139.3368  163.8496 C.ar    1  UNL1        0.0567
      4 C         142.8082  138.8940  164.7564 C.ar    1  UNL1        0.0740
      5 C         141.7610  137.9456  164.2525 C.ar    1  UNL1        0.1097
      6 N         141.8236  137.4400  162.8416 N.ar    1  UNL1       -0.2283
      7 N         142.9959  137.3772  160.5239 N.pl3   1  UNL1       -0.2821
      8 H         143.1484  136.4202  160.3503 H       1  UNL1        0.1551
      9 C         142.4867  140.2347  157.0851 C.ar    1  UNL1        0.1683
     10 C         143.7533  140.2462  157.8885 C.ar    1  UNL1        0.1299
     11 N         143.9231  139.2937  159.0348 N.ar    1  UNL1       -0.2251
     12 C         142.8262  138.3297  159.3777 C.ar    1  UNL1        0.1527
     13 C         141.5596  138.3183  158.5743 C.ar    1  UNL1        0.1340
     14 N         141.3898  139.2708  157.4280 N.ar    1  UNL1       -0.2290
     15 N         142.1472  142.1397  154.7926 N.1     1  UNL1       -0.1892
     16 C         142.3170  141.1872  155.9388 C.1     1  UNL1        0.1214
     17 N         144.9651  140.2852  164.3536 N.pl3   1  UNL1       -0.3301
     18 H         145.4423  140.0911  165.1926 H       1  UNL1        0.1469
     19 C         145.2852  141.5294  163.5794 C.3     1  UNL1        0.1185
     20 C         144.3066  142.6657  163.5478 C.3     1  UNL1        0.1503
     21 C         144.5109  143.8053  162.5940 C.3     1  UNL1        0.1003
     22 N         143.5323  144.9416  162.5624 N.3     1  UNL1       -0.2933
     23 C         142.3493  144.9384  163.4847 C.3     1  UNL1        0.1011
     24 C         142.1449  143.7989  164.4385 C.3     1  UNL1        0.1592
     25 O         143.1236  142.6625  164.4700 O.3     1  UNL1       -0.3516
     26 H         143.1647  144.9872  161.6121 H       1  UNL1        0.1234
     27 C         142.7456  139.3996  166.1673 C.1     1  UNL1       -0.0593
     28 C         142.6831  139.9053  167.5781 C.1     1  UNL1       -0.0610
     29 C         142.6205  140.4109  168.9889 C.3     1  UNL1        0.1416
     30 O         142.9340  138.9882  169.3460 O.3     1  UNL1       -0.3753
     31 C         142.6235  140.6191  170.4744 C.3     1  UNL1        0.0395
     32 C         142.3250  142.0648  170.7404 C.3     1  UNL1        0.0035
     33 C         142.1374  142.7502  169.4193 C.3     1  UNL1        0.0035
     34 C         142.3201  141.7279  168.3369 C.3     1  UNL1        0.0395
     35 H         142.9833  138.9003  170.3108 H       1  UNL1        0.2114
@<TRIPOS>BOND
     1    15    16    3
     2    16     9    1
     3     9    10   ar
     4    10    11   ar
     5    11    12   ar
     6    12     7    1
     7     7     1    1
     8     1     2   ar
     9     2     3   ar
    10     3    17    1
    11    17    19    1
    12    20    19    1
    13    20    21    1
    14    21    22    1
    15    22    23    1
    16    23    24    1
    17    24    25    1
    18     3     4   ar
    19     4    27    1
    20    27    28    3
    21    28    29    1
    22    29    30    1
    23    29    31    1
    24    31    32    1
    25    32    33    1
    26    33    34    1
    27     4     5   ar
    28     5     6   ar
    29    12    13   ar
    30    13    14   ar
    31    14     9   ar
    32     6     1   ar
    33    25    20    1
    34    34    29    1
    35     7     8    1
    36    17    18    1
    37    22    26    1
    38    30    35    1
