@<TRIPOS>MOLECULE
*****
 32 35 0 0 0
SMALL
GASTEIGER

@<TRIPOS>ATOM
      1 N         141.8906  143.5796  160.2044 N.ar    1  UNL1       -0.2286
      2 C         142.9269  142.5080  160.3713 C.ar    1  UNL1        0.0990
      3 C         142.8700  142.0253  161.7904 C.ar    1  UNL1        0.0338
      4 C         141.7985  142.7985  162.5005 C.ar    1  UNL1        0.0981
      5 N         141.1933  143.7592  161.5202 N.ar    1  UNL1       -0.1680
      6 C         141.7416  142.3159  163.9195 C.3     1  UNL1        0.1414
      7 N         142.7779  141.2442  164.0866 N.am    1  UNL1       -0.2660
      8 C         143.0662  140.4855  165.3479 C.2     1  UNL1        0.2525
      9 O         144.1382  139.4364  165.3637 O.2     1  UNL1       -0.2698
     10 C         143.4752  141.0647  162.7706 C.3     1  UNL1        0.1236
     11 C         142.8996  144.5354  155.1975 C.3     1  UNL1        0.0521
     12 C         142.1068  144.8164  156.4395 C.ar    1  UNL1        0.0609
     13 C         142.3951  144.0576  157.7010 C.ar    1  UNL1        0.0339
     14 C         141.6023  144.3384  158.9430 C.ar    1  UNL1        0.0855
     15 C         140.5213  145.3781  158.9236 C.ar    1  UNL1        0.0398
     16 C         140.2330  146.1369  157.6622 C.ar    1  UNL1        0.1000
     17 N         141.0258  145.8560  156.4202 N.ar    1  UNL1       -0.2480
     18 C         142.2825  140.7757  166.5935 C.ar    1  UNL1        0.0881
     19 C         142.8469  141.6921  167.6382 C.ar    1  UNL1        0.0178
     20 C         142.0632  141.9824  168.8839 C.ar    1  UNL1        0.0688
     21 C         140.7151  141.3562  169.0848 C.ar    1  UNL1        0.0134
     22 C         140.1506  140.4397  168.0400 C.ar    1  UNL1        0.0377
     23 C         140.9343  140.1495  166.7944 C.ar    1  UNL1        0.1431
     24 C         142.6277  142.8989  169.9286 C.1     1  UNL1        0.1004
     25 N         143.1923  143.8152  170.9733 N.1     1  UNL1       -0.1908
     26 O         140.3698  139.2330  165.7497 O.3     1  UNL1       -0.4702
     27 C         138.8842  139.1104  165.5831 C.3     1  UNL1        0.2599
     28 C         138.1275  140.1509  164.8119 C.3     1  UNL1        0.0566
     29 C         138.1551  137.9472  166.1877 C.3     1  UNL1        0.4340
     30 F         137.4262  136.7840  166.7923 F       1  UNL1       -0.1664
     31 F         137.3664  138.8890  167.0485 F       1  UNL1       -0.1664
     32 F         138.9439  137.0054  165.3269 F       1  UNL1       -0.1664
@<TRIPOS>BOND
     1    11    12    1
     2    12    13   ar
     3    13    14   ar
     4    14     1    1
     5     1     2   ar
     6     2     3   ar
     7     3     4   ar
     8     4     5   ar
     9     4     6    1
    10     6     7    1
    11     7     8   am
    12     8     9    2
    13     8    18    1
    14    18    19   ar
    15    19    20   ar
    16    20    24    1
    17    24    25    3
    18    20    21   ar
    19    21    22   ar
    20    22    23   ar
    21    23    26    1
    22    26    27    1
    23    27    28    1
    24    27    29    1
    25    29    30    1
    26    29    31    1
    27    29    32    1
    28     7    10    1
    29    14    15   ar
    30    15    16   ar
    31    16    17   ar
    32    17    12   ar
    33     5     1   ar
    34    23    18   ar
    35    10     3    1
@<TRIPOS>MOLECULE
*****
 32 35 0 0 0
SMALL
GASTEIGER

@<TRIPOS>ATOM
      1 N         141.9744  138.8459  158.3745 N.ar    1  UNL1       -0.2286
      2 C         140.8186  139.7764  158.1551 C.ar    1  UNL1        0.0990
      3 C         140.2679  140.1560  159.4977 C.ar    1  UNL1        0.0338
      4 C         141.0834  139.4601  160.5469 C.ar    1  UNL1        0.0981
      5 N         142.1381  138.6504  159.8526 N.ar    1  UNL1       -0.1680
      6 C         140.5327  139.8397  161.8895 C.3     1  UNL1        0.1414
      7 N         139.3768  140.7702  161.6702 N.am    1  UNL1       -0.2660
      8 C         138.5328  141.3954  162.7410 C.2     1  UNL1        0.2525
      9 O         137.4045  142.3108  162.3679 O.2     1  UNL1       -0.2698
     10 C         139.2132  140.9657  160.1920 C.3     1  UNL1        0.1236
     11 C         143.7122  134.6129  155.9124 C.3     1  UNL1        0.0521
     12 C         143.6874  136.1040  156.0726 C.ar    1  UNL1        0.0609
     13 C         142.8434  136.7294  157.1434 C.ar    1  UNL1        0.0339
     14 C         142.8185  138.2206  157.3036 C.ar    1  UNL1        0.0855
     15 C         143.6376  139.0865  156.3930 C.ar    1  UNL1        0.0398
     16 C         144.4816  138.4612  155.3222 C.ar    1  UNL1        0.1000
     17 N         144.5065  136.9700  155.1620 N.ar    1  UNL1       -0.2480
     18 C         138.8171  141.1054  164.1849 C.ar    1  UNL1        0.0881
     19 C         138.1332  139.9586  164.8683 C.ar    1  UNL1        0.0178
     20 C         138.4174  139.6685  166.3124 C.ar    1  UNL1        0.0688
     21 C         139.3855  140.5253  167.0730 C.ar    1  UNL1        0.0134
     22 C         140.0695  141.6722  166.3896 C.ar    1  UNL1        0.0377
     23 C         139.7852  141.9622  164.9457 C.ar    1  UNL1        0.1431
     24 C         137.7334  138.5216  166.9956 C.1     1  UNL1        0.1004
     25 N         137.0495  137.3748  167.6789 N.1     1  UNL1       -0.1908
     26 O         140.4692  143.1091  164.2623 O.3     1  UNL1       -0.4702
     27 C         139.7808  144.4376  164.1566 C.3     1  UNL1        0.2599
     28 C         138.7840  144.8508  165.1986 C.3     1  UNL1        0.0566
     29 C         140.0891  145.3529  163.0090 C.3     1  UNL1        0.4340
     30 F         140.3974  146.2682  161.8613 F       1  UNL1       -0.1664
     31 F         141.4659  145.5794  163.5596 F       1  UNL1       -0.1664
     32 F         138.7123  145.1263  162.4583 F       1  UNL1       -0.1664
@<TRIPOS>BOND
     1    11    12    1
     2    12    13   ar
     3    13    14   ar
     4    14     1    1
     5     1     2   ar
     6     2     3   ar
     7     3     4   ar
     8     4     5   ar
     9     4     6    1
    10     6     7    1
    11     7     8   am
    12     8     9    2
    13     8    18    1
    14    18    19   ar
    15    19    20   ar
    16    20    24    1
    17    24    25    3
    18    20    21   ar
    19    21    22   ar
    20    22    23   ar
    21    23    26    1
    22    26    27    1
    23    27    28    1
    24    27    29    1
    25    29    30    1
    26    29    31    1
    27    29    32    1
    28     7    10    1
    29    14    15   ar
    30    15    16   ar
    31    16    17   ar
    32    17    12   ar
    33     5     1   ar
    34    23    18   ar
    35    10     3    1
@<TRIPOS>MOLECULE
*****
 32 35 0 0 0
SMALL
GASTEIGER

@<TRIPOS>ATOM
      1 N         143.5574  141.1251  160.4399 N.ar    1  UNL1       -0.2286
      2 C         144.2780  139.9707  161.0708 C.ar    1  UNL1        0.0990
      3 C         143.8926  139.9197  162.5195 C.ar    1  UNL1        0.0338
      4 C         142.9339  141.0426  162.7840 C.ar    1  UNL1        0.0981
      5 N         142.7267  141.7876  161.4987 N.ar    1  UNL1       -0.1680
      6 C         142.5485  140.9916  164.2327 C.3     1  UNL1        0.1414
      7 N         143.2691  139.8371  164.8637 N.am    1  UNL1       -0.2660
      8 C         143.1754  139.4187  166.3010 C.2     1  UNL1        0.2525
      9 O         143.9589  138.2369  166.7908 O.2     1  UNL1       -0.2698
     10 C         144.0998  139.1747  163.8048 C.3     1  UNL1        0.1236
     11 C         145.0547  140.1562  155.5594 C.3     1  UNL1        0.0521
     12 C         144.3998  141.0591  156.5621 C.ar    1  UNL1        0.0609
     13 C         144.3061  140.6407  157.9996 C.ar    1  UNL1        0.0339
     14 C         143.6511  141.5436  159.0025 C.ar    1  UNL1        0.0855
     15 C         143.0898  142.8650  158.5680 C.ar    1  UNL1        0.0398
     16 C         143.1835  143.2835  157.1305 C.ar    1  UNL1        0.1000
     17 N         143.8385  142.3806  156.1276 N.ar    1  UNL1       -0.2480
     18 C         142.2983  140.1819  167.2488 C.ar    1  UNL1        0.0881
     19 C         142.9053  141.1629  168.2075 C.ar    1  UNL1        0.0178
     20 C         142.0281  141.9261  169.1553 C.ar    1  UNL1        0.0688
     21 C         140.5442  141.7084  169.1443 C.ar    1  UNL1        0.0134
     22 C         139.9371  140.7274  168.1855 C.ar    1  UNL1        0.0377
     23 C         140.8142  139.9642  167.2378 C.ar    1  UNL1        0.1431
     24 C         142.6352  142.9071  170.1140 C.1     1  UNL1        0.1004
     25 N         143.2424  143.8879  171.0728 N.1     1  UNL1       -0.1908
     26 O         140.2072  138.9832  166.2790 O.3     1  UNL1       -0.4702
     27 C         138.7270  138.9893  166.0365 C.3     1  UNL1        0.2599
     28 C         138.1089  140.0683  165.1976 C.3     1  UNL1        0.0566
     29 C         137.8648  137.9164  166.6328 C.3     1  UNL1        0.4340
     30 F         137.0027  136.8435  167.2290 F       1  UNL1       -0.1664
     31 F         137.3542  138.8926  167.6507 F       1  UNL1       -0.1664
     32 F         138.3755  136.9402  165.6147 F       1  UNL1       -0.1664
@<TRIPOS>BOND
     1    11    12    1
     2    12    13   ar
     3    13    14   ar
     4    14     1    1
     5     1     2   ar
     6     2     3   ar
     7     3     4   ar
     8     4     5   ar
     9     4     6    1
    10     6     7    1
    11     7     8   am
    12     8     9    2
    13     8    18    1
    14    18    19   ar
    15    19    20   ar
    16    20    24    1
    17    24    25    3
    18    20    21   ar
    19    21    22   ar
    20    22    23   ar
    21    23    26    1
    22    26    27    1
    23    27    28    1
    24    27    29    1
    25    29    30    1
    26    29    31    1
    27    29    32    1
    28     7    10    1
    29    14    15   ar
    30    15    16   ar
    31    16    17   ar
    32    17    12   ar
    33     5     1   ar
    34    23    18   ar
    35    10     3    1
@<TRIPOS>MOLECULE
*****
 32 35 0 0 0
SMALL
GASTEIGER

@<TRIPOS>ATOM
      1 N         142.2802  139.8465  159.7366 N.ar    1  UNL1       -0.2286
      2 C         141.4870  141.1172  159.8160 C.ar    1  UNL1        0.0990
      3 C         141.2325  141.4149  161.2640 C.ar    1  UNL1        0.0338
      4 C         141.8683  140.3282  162.0794 C.ar    1  UNL1        0.0981
      5 N         142.5158  139.3589  161.1354 N.ar    1  UNL1       -0.1680
      6 C         141.6138  140.6260  163.5274 C.3     1  UNL1        0.1414
      7 N         140.8207  141.8967  163.6069 N.am    1  UNL1       -0.2660
      8 C         140.3465  142.5628  164.8643 C.2     1  UNL1        0.2525
      9 O         139.5587  143.8370  164.7869 O.2     1  UNL1       -0.2698
     10 C         140.5850  142.3842  162.2080 C.3     1  UNL1        0.1236
     11 C         142.8789  135.5556  156.8678 C.3     1  UNL1        0.0521
     12 C         143.0538  137.0348  157.0447 C.ar    1  UNL1        0.0609
     13 C         142.5796  137.7011  158.3022 C.ar    1  UNL1        0.0339
     14 C         142.7544  139.1803  158.4791 C.ar    1  UNL1        0.0855
     15 C         143.4035  139.9934  157.3985 C.ar    1  UNL1        0.0398
     16 C         143.8777  139.3271  156.1410 C.ar    1  UNL1        0.1000
     17 N         143.7029  137.8479  155.9641 N.ar    1  UNL1       -0.2480
     18 C         140.6600  141.9549  166.1992 C.ar    1  UNL1        0.0881
     19 C         141.8490  142.4313  166.9797 C.ar    1  UNL1        0.0178
     20 C         142.1626  141.8233  168.3147 C.ar    1  UNL1        0.0688
     21 C         141.2871  140.7390  168.8692 C.ar    1  UNL1        0.0134
     22 C         140.0980  140.2624  168.0887 C.ar    1  UNL1        0.0377
     23 C         139.7845  140.8704  166.7538 C.ar    1  UNL1        0.1431
     24 C         143.3516  142.2999  169.0951 C.1     1  UNL1        0.1004
     25 N         144.5408  142.7764  169.8754 N.1     1  UNL1       -0.1908
     26 O         138.5954  140.3939  165.9733 O.3     1  UNL1       -0.4702
     27 C         138.2884  138.9278  165.8946 C.3     1  UNL1        0.2599
     28 C         137.5293  138.2599  167.0026 C.3     1  UNL1        0.0566
     29 C         138.7406  138.1295  164.7079 C.3     1  UNL1        0.4340
     30 F         139.1927  137.3313  163.5211 F       1  UNL1       -0.1664
     31 F         138.8153  136.8998  165.5636 F       1  UNL1       -0.1664
     32 F         138.6658  139.3593  163.8522 F       1  UNL1       -0.1664
@<TRIPOS>BOND
     1    11    12    1
     2    12    13   ar
     3    13    14   ar
     4    14     1    1
     5     1     2   ar
     6     2     3   ar
     7     3     4   ar
     8     4     5   ar
     9     4     6    1
    10     6     7    1
    11     7     8   am
    12     8     9    2
    13     8    18    1
    14    18    19   ar
    15    19    20   ar
    16    20    24    1
    17    24    25    3
    18    20    21   ar
    19    21    22   ar
    20    22    23   ar
    21    23    26    1
    22    26    27    1
    23    27    28    1
    24    27    29    1
    25    29    30    1
    26    29    31    1
    27    29    32    1
    28     7    10    1
    29    14    15   ar
    30    15    16   ar
    31    16    17   ar
    32    17    12   ar
    33     5     1   ar
    34    23    18   ar
    35    10     3    1
@<TRIPOS>MOLECULE
*****
 32 35 0 0 0
SMALL
GASTEIGER

@<TRIPOS>ATOM
      1 N         142.1720  137.3007  158.0563 N.ar    1  UNL1       -0.2286
      2 C         142.9335  137.1706  159.3421 C.ar    1  UNL1        0.0990
      3 C         142.3434  138.1333  160.3296 C.ar    1  UNL1        0.0338
      4 C         141.2173  138.8583  159.6541 C.ar    1  UNL1        0.0981
      5 N         141.1114  138.3437  158.2491 N.ar    1  UNL1       -0.1680
      6 C         140.6272  139.8209  160.6416 C.3     1  UNL1        0.1414
      7 N         141.3887  139.6909  161.9275 N.am    1  UNL1       -0.2660
      8 C         141.1342  140.4674  163.1852 C.2     1  UNL1        0.2525
      9 O         141.9822  140.2279  164.3992 O.2     1  UNL1       -0.2698
     10 C         142.4493  138.6478  161.7346 C.3     1  UNL1        0.1236
     11 C         143.8117  132.9729  155.6938 C.3     1  UNL1        0.0521
     12 C         143.2464  134.3601  155.6172 C.ar    1  UNL1        0.0609
     13 C         142.9918  135.1368  156.8750 C.ar    1  UNL1        0.0339
     14 C         142.4265  136.5241  156.7985 C.ar    1  UNL1        0.0855
     15 C         142.1157  137.1348  155.4642 C.ar    1  UNL1        0.0398
     16 C         142.3703  136.3581  154.2064 C.ar    1  UNL1        0.1000
     17 N         142.9356  134.9708  154.2829 N.ar    1  UNL1       -0.2480
     18 C         140.0317  141.4836  163.2292 C.ar    1  UNL1        0.0881
     19 C         140.2755  142.8768  162.7297 C.ar    1  UNL1        0.0178
     20 C         139.1730  143.8930  162.7736 C.ar    1  UNL1        0.0688
     21 C         137.8267  143.5160  163.3170 C.ar    1  UNL1        0.0134
     22 C         137.5829  142.1228  163.8166 C.ar    1  UNL1        0.0377
     23 C         138.6853  141.1066  163.7726 C.ar    1  UNL1        0.1431
     24 C         139.4169  145.2862  162.2741 C.1     1  UNL1        0.1004
     25 N         139.6609  146.6793  161.7745 N.1     1  UNL1       -0.1908
     26 O         138.4415  139.7134  164.2721 O.3     1  UNL1       -0.4702
     27 C         138.6065  139.3996  165.7296 C.3     1  UNL1        0.2599
     28 C         139.3191  140.3658  166.6289 C.3     1  UNL1        0.0566
     29 C         138.0589  138.1195  166.2878 C.3     1  UNL1        0.4340
     30 F         137.5113  136.8396  166.8461 F       1  UNL1       -0.1664
     31 F         138.7197  137.3538  165.1802 F       1  UNL1       -0.1664
     32 F         137.3981  138.8853  167.3956 F       1  UNL1       -0.1664
@<TRIPOS>BOND
     1    11    12    1
     2    12    13   ar
     3    13    14   ar
     4    14     1    1
     5     1     2   ar
     6     2     3   ar
     7     3     4   ar
     8     4     5   ar
     9     4     6    1
    10     6     7    1
    11     7     8   am
    12     8     9    2
    13     8    18    1
    14    18    19   ar
    15    19    20   ar
    16    20    24    1
    17    24    25    3
    18    20    21   ar
    19    21    22   ar
    20    22    23   ar
    21    23    26    1
    22    26    27    1
    23    27    28    1
    24    27    29    1
    25    29    30    1
    26    29    31    1
    27    29    32    1
    28     7    10    1
    29    14    15   ar
    30    15    16   ar
    31    16    17   ar
    32    17    12   ar
    33     5     1   ar
    34    23    18   ar
    35    10     3    1
@<TRIPOS>MOLECULE
*****
 32 35 0 0 0
SMALL
GASTEIGER

@<TRIPOS>ATOM
      1 N         138.9705  142.2098  160.0648 N.ar    1  UNL1       -0.2286
      2 C         138.1870  141.0357  160.5723 C.ar    1  UNL1        0.0990
      3 C         138.6190  140.7650  161.9830 C.ar    1  UNL1        0.0338
      4 C         139.6695  141.7718  162.3474 C.ar    1  UNL1        0.0981
      5 N         139.8868  142.6648  161.1619 N.ar    1  UNL1       -0.1680
      6 C         140.1015  141.5011  163.7581 C.3     1  UNL1        0.1414
      7 N         139.3179  140.3269  164.2656 N.am    1  UNL1       -0.2660
      8 C         139.4307  139.7152  165.6305 C.2     1  UNL1        0.2525
      9 O         138.5774  138.5373  165.9974 O.2     1  UNL1       -0.2698
     10 C         138.4017  139.8720  163.1685 C.3     1  UNL1        0.1236
     11 C         136.5505  142.5695  155.4808 C.3     1  UNL1        0.0521
     12 C         137.6476  143.0015  156.4078 C.ar    1  UNL1        0.0609
     13 C         137.7605  142.3897  157.7728 C.ar    1  UNL1        0.0339
     14 C         138.8577  142.8216  158.6999 C.ar    1  UNL1        0.0855
     15 C         139.8420  143.8654  158.2622 C.ar    1  UNL1        0.0398
     16 C         139.7291  144.4772  156.8972 C.ar    1  UNL1        0.1000
     17 N         138.6319  144.0452  155.9701 N.ar    1  UNL1       -0.2480
     18 C         140.3969  140.2811  166.6285 C.ar    1  UNL1        0.0881
     19 C         140.0061  141.4649  167.4627 C.ar    1  UNL1        0.0178
     20 C         140.9723  142.0310  168.4608 C.ar    1  UNL1        0.0688
     21 C         142.3292  141.4132  168.6247 C.ar    1  UNL1        0.0134
     22 C         142.7201  140.2293  167.7906 C.ar    1  UNL1        0.0377
     23 C         141.7540  139.6634  166.7925 C.ar    1  UNL1        0.1431
     24 C         140.5814  143.2148  169.2949 C.1     1  UNL1        0.1004
     25 N         140.1903  144.3986  170.1289 N.1     1  UNL1       -0.1908
     26 O         142.1448  138.4795  165.9583 O.3     1  UNL1       -0.4702
     27 C         142.8026  138.6852  164.6260 C.3     1  UNL1        0.2599
     28 C         142.1337  138.1958  163.3758 C.3     1  UNL1        0.0566
     29 C         144.1293  139.3801  164.5440 C.3     1  UNL1        0.4340
     30 F         145.4560  140.0752  164.4618 F       1  UNL1       -0.1664
     31 F         144.6618  138.4917  165.6289 F       1  UNL1       -0.1664
     32 F         143.5968  140.2686  163.4590 F       1  UNL1       -0.1664
@<TRIPOS>BOND
     1    11    12    1
     2    12    13   ar
     3    13    14   ar
     4    14     1    1
     5     1     2   ar
     6     2     3   ar
     7     3     4   ar
     8     4     5   ar
     9     4     6    1
    10     6     7    1
    11     7     8   am
    12     8     9    2
    13     8    18    1
    14    18    19   ar
    15    19    20   ar
    16    20    24    1
    17    24    25    3
    18    20    21   ar
    19    21    22   ar
    20    22    23   ar
    21    23    26    1
    22    26    27    1
    23    27    28    1
    24    27    29    1
    25    29    30    1
    26    29    31    1
    27    29    32    1
    28     7    10    1
    29    14    15   ar
    30    15    16   ar
    31    16    17   ar
    32    17    12   ar
    33     5     1   ar
    34    23    18   ar
    35    10     3    1
@<TRIPOS>MOLECULE
*****
 32 35 0 0 0
SMALL
GASTEIGER

@<TRIPOS>ATOM
      1 N         142.5331  140.4390  158.4316 N.ar    1  UNL1       -0.2286
      2 C         141.2205  141.1471  158.2715 C.ar    1  UNL1        0.0990
      3 C         140.5704  141.2291  159.6208 C.ar    1  UNL1        0.0338
      4 C         141.4813  140.5717  160.6149 C.ar    1  UNL1        0.0981
      5 N         142.6943  140.0833  159.8799 N.ar    1  UNL1       -0.1680
      6 C         140.8313  140.6537  161.9643 C.3     1  UNL1        0.1414
      7 N         139.5186  141.3619  161.8041 N.am    1  UNL1       -0.2660
      8 C         138.5392  141.6617  162.8999 C.2     1  UNL1        0.2525
      9 O         137.2606  142.3810  162.5869 O.2     1  UNL1       -0.2698
     10 C         139.3575  141.7174  160.3558 C.3     1  UNL1        0.1236
     11 C         146.8496  141.6417  155.8009 C.3     1  UNL1        0.0521
     12 C         145.6709  140.7405  156.0205 C.ar    1  UNL1        0.0609
     13 C         144.6913  141.0403  157.1162 C.ar    1  UNL1        0.0339
     14 C         143.5125  140.1391  157.3359 C.ar    1  UNL1        0.0855
     15 C         143.3132  138.9380  156.4597 C.ar    1  UNL1        0.0398
     16 C         144.2928  138.6381  155.3640 C.ar    1  UNL1        0.1000
     17 N         145.4716  139.5394  155.1443 N.ar    1  UNL1       -0.2480
     18 C         138.8383  141.2423  164.3086 C.ar    1  UNL1        0.0881
     19 C         138.1288  140.0640  164.9070 C.ar    1  UNL1        0.0178
     20 C         138.4278  139.6445  166.3158 C.ar    1  UNL1        0.0688
     21 C         139.4363  140.4035  167.1262 C.ar    1  UNL1        0.0134
     22 C         140.1459  141.5819  166.5279 C.ar    1  UNL1        0.0377
     23 C         139.8468  142.0013  165.1192 C.ar    1  UNL1        0.1431
     24 C         137.7183  138.4661  166.9141 C.1     1  UNL1        0.1004
     25 N         137.0088  137.2876  167.5122 N.1     1  UNL1       -0.1908
     26 O         140.5563  143.1797  164.5208 O.3     1  UNL1       -0.4702
     27 C         139.8343  144.4837  164.3526 C.3     1  UNL1        0.2599
     28 C         138.7951  144.8998  165.3511 C.3     1  UNL1        0.0566
     29 C         140.1514  145.3715  163.1859 C.3     1  UNL1        0.4340
     30 F         140.4685  146.2594  162.0193 F       1  UNL1       -0.1664
     31 F         141.5167  145.6276  163.7520 F       1  UNL1       -0.1664
     32 F         138.7861  145.1155  162.6199 F       1  UNL1       -0.1664
@<TRIPOS>BOND
     1    11    12    1
     2    12    13   ar
     3    13    14   ar
     4    14     1    1
     5     1     2   ar
     6     2     3   ar
     7     3     4   ar
     8     4     5   ar
     9     4     6    1
    10     6     7    1
    11     7     8   am
    12     8     9    2
    13     8    18    1
    14    18    19   ar
    15    19    20   ar
    16    20    24    1
    17    24    25    3
    18    20    21   ar
    19    21    22   ar
    20    22    23   ar
    21    23    26    1
    22    26    27    1
    23    27    28    1
    24    27    29    1
    25    29    30    1
    26    29    31    1
    27    29    32    1
    28     7    10    1
    29    14    15   ar
    30    15    16   ar
    31    16    17   ar
    32    17    12   ar
    33     5     1   ar
    34    23    18   ar
    35    10     3    1
@<TRIPOS>MOLECULE
*****
 32 35 0 0 0
SMALL
GASTEIGER

@<TRIPOS>ATOM
      1 N         137.9930  141.0098  158.0545 N.ar    1  UNL1       -0.2286
      2 C         138.8862  139.8048  158.0394 C.ar    1  UNL1        0.0990
      3 C         139.2496  139.4796  159.4579 C.ar    1  UNL1        0.0338
      4 C         138.5810  140.4835  160.3496 C.ar    1  UNL1        0.0981
      5 N         137.8043  141.4292  159.4822 N.ar    1  UNL1       -0.1680
      6 C         138.9444  140.1582  161.7681 C.3     1  UNL1        0.1414
      7 N         139.8376  138.9532  161.7531 N.am    1  UNL1       -0.2660
      8 C         140.4369  138.2850  162.9548 C.2     1  UNL1        0.2525
      9 O         141.3157  137.0814  162.7836 O.2     1  UNL1       -0.2698
     10 C         140.0262  138.5338  160.3253 C.3     1  UNL1        0.1236
     11 C         137.5999  145.1457  154.9336 C.3     1  UNL1        0.0521
     12 C         137.1971  143.7461  155.2922 C.ar    1  UNL1        0.0609
     13 C         137.7964  143.0777  156.4940 C.ar    1  UNL1        0.0339
     14 C         137.3936  141.6780  156.8527 C.ar    1  UNL1        0.0855
     15 C         136.3915  140.9466  156.0096 C.ar    1  UNL1        0.0398
     16 C         135.7922  141.6150  154.8079 C.ar    1  UNL1        0.1000
     17 N         136.1949  143.0146  154.4492 N.ar    1  UNL1       -0.2480
     18 C         140.1576  138.8203  164.3279 C.ar    1  UNL1        0.0881
     19 C         138.9938  138.2951  165.1152 C.ar    1  UNL1        0.0178
     20 C         138.7144  138.8304  166.4884 C.ar    1  UNL1        0.0688
     21 C         139.5988  139.8908  167.0742 C.ar    1  UNL1        0.0134
     22 C         140.7627  140.4160  166.2870 C.ar    1  UNL1        0.0377
     23 C         141.0420  139.8807  164.9139 C.ar    1  UNL1        0.1431
     24 C         137.5505  138.3052  167.2755 C.1     1  UNL1        0.1004
     25 N         136.3867  137.7801  168.0627 N.1     1  UNL1       -0.1908
     26 O         142.2058  140.4058  164.1267 O.3     1  UNL1       -0.4702
     27 C         143.6070  140.1392  164.5911 C.3     1  UNL1        0.2599
     28 C         143.9505  138.8218  165.2207 C.3     1  UNL1        0.0566
     29 C         144.6646  141.1900  164.4260 C.3     1  UNL1        0.4340
     30 F         145.7221  142.2408  164.2610 F       1  UNL1       -0.1664
     31 F         145.5832  140.1703  163.8208 F       1  UNL1       -0.1664
     32 F         143.7459  142.2097  165.0313 F       1  UNL1       -0.1664
@<TRIPOS>BOND
     1    11    12    1
     2    12    13   ar
     3    13    14   ar
     4    14     1    1
     5     1     2   ar
     6     2     3   ar
     7     3     4   ar
     8     4     5   ar
     9     4     6    1
    10     6     7    1
    11     7     8   am
    12     8     9    2
    13     8    18    1
    14    18    19   ar
    15    19    20   ar
    16    20    24    1
    17    24    25    3
    18    20    21   ar
    19    21    22   ar
    20    22    23   ar
    21    23    26    1
    22    26    27    1
    23    27    28    1
    24    27    29    1
    25    29    30    1
    26    29    31    1
    27    29    32    1
    28     7    10    1
    29    14    15   ar
    30    15    16   ar
    31    16    17   ar
    32    17    12   ar
    33     5     1   ar
    34    23    18   ar
    35    10     3    1
@<TRIPOS>MOLECULE
*****
 32 35 0 0 0
SMALL
GASTEIGER

@<TRIPOS>ATOM
      1 N         141.9568  138.7503  159.2979 N.ar    1  UNL1       -0.2286
      2 C         143.0216  139.8021  159.3974 C.ar    1  UNL1        0.0990
      3 C         142.9839  140.3700  160.7851 C.ar    1  UNL1        0.0338
      4 C         141.8957  139.6693  161.5434 C.ar    1  UNL1        0.0981
      5 N         141.2609  138.6683  160.6242 N.ar    1  UNL1       -0.1680
      6 C         141.8580  140.2373  162.9312 C.3     1  UNL1        0.1414
      7 N         142.9228  141.2892  163.0307 N.am    1  UNL1       -0.2660
      8 C         143.2367  142.1140  164.2434 C.2     1  UNL1        0.2525
      9 O         144.3361  143.1334  164.1933 O.2     1  UNL1       -0.2698
     10 C         143.6187  141.3711  161.7043 C.3     1  UNL1        0.1236
     11 C         143.3632  135.1726  155.8019 C.3     1  UNL1        0.0521
     12 C         142.3461  136.1365  156.3370 C.ar    1  UNL1        0.0609
     13 C         142.6599  136.9615  157.5499 C.ar    1  UNL1        0.0339
     14 C         141.6429  137.9254  158.0851 C.ar    1  UNL1        0.0855
     15 C         140.3119  138.0643  157.4075 C.ar    1  UNL1        0.0398
     16 C         139.9981  137.2393  156.1946 C.ar    1  UNL1        0.1000
     17 N         141.0151  136.2754  155.6594 N.ar    1  UNL1       -0.2480
     18 C         142.4513  141.9197  165.5065 C.ar    1  UNL1        0.0881
     19 C         142.8746  140.8789  166.5002 C.ar    1  UNL1        0.0178
     20 C         142.0892  140.6845  167.7634 C.ar    1  UNL1        0.0688
     21 C         140.8805  141.5309  168.0327 C.ar    1  UNL1        0.0134
     22 C         140.4572  142.5718  167.0390 C.ar    1  UNL1        0.0377
     23 C         141.2426  142.7661  165.7759 C.ar    1  UNL1        0.1431
     24 C         142.5126  139.6436  168.7570 C.1     1  UNL1        0.1004
     25 N         142.9360  138.6027  169.7506 N.1     1  UNL1       -0.1908
     26 O         140.8193  143.8069  164.7822 O.3     1  UNL1       -0.4702
     27 C         139.5000  143.6806  164.0797 C.3     1  UNL1        0.2599
     28 C         139.4338  143.0659  162.7131 C.3     1  UNL1        0.0566
     29 C         138.2468  144.1689  164.7439 C.3     1  UNL1        0.4340
     30 F         136.9936  144.6572  165.4080 F       1  UNL1       -0.1664
     31 F         139.0008  145.3365  165.3079 F       1  UNL1       -0.1664
     32 F         137.4928  143.0012  164.1798 F       1  UNL1       -0.1664
@<TRIPOS>BOND
     1    11    12    1
     2    12    13   ar
     3    13    14   ar
     4    14     1    1
     5     1     2   ar
     6     2     3   ar
     7     3     4   ar
     8     4     5   ar
     9     4     6    1
    10     6     7    1
    11     7     8   am
    12     8     9    2
    13     8    18    1
    14    18    19   ar
    15    19    20   ar
    16    20    24    1
    17    24    25    3
    18    20    21   ar
    19    21    22   ar
    20    22    23   ar
    21    23    26    1
    22    26    27    1
    23    27    28    1
    24    27    29    1
    25    29    30    1
    26    29    31    1
    27    29    32    1
    28     7    10    1
    29    14    15   ar
    30    15    16   ar
    31    16    17   ar
    32    17    12   ar
    33     5     1   ar
    34    23    18   ar
    35    10     3    1
