@<TRIPOS>MOLECULE
*****
 37 40 0 0 0
SMALL
GASTEIGER

@<TRIPOS>ATOM
      1 S         141.4933  143.9222  161.7275 S.O2    1  UNL1        0.0134
      2 O         141.9210  145.0457  162.3419 O.2     1  UNL1       -0.1683
      3 O         141.0621  142.5861  161.1994 O.2     1  UNL1       -0.1683
      4 C         141.1053  144.5614  160.4272 C.3     1  UNL1        0.1845
      5 C         142.3293  143.8705  159.9032 C.3     1  UNL1        0.0313
      6 C         142.4588  144.1992  158.4454 C.3     1  UNL1        0.0024
      7 C         141.3149  145.0932  158.0683 C.3     1  UNL1        0.0048
      8 C         140.1241  145.9766  157.8408 C.3     1  UNL1        0.0172
      9 C         139.8627  146.5466  156.4782 C.3     1  UNL1        0.0686
     10 N         140.7919  146.2333  155.3432 N.3     1  UNL1       -0.2975
     11 C         141.9826  145.3500  155.5707 C.3     1  UNL1        0.0686
     12 C         142.2441  144.7799  156.9333 C.3     1  UNL1        0.0172
     13 C         140.4784  145.3171  159.2931 C.3     1  UNL1        0.0314
     14 H         141.1483  147.1252  154.9996 H       1  UNL1        0.1232
     15 C         139.9625  145.1187  161.2229 C.2     1  UNL1        0.2644
     16 O         139.8051  146.3947  161.6346 O.2     1  UNL1       -0.2713
     17 N         138.8347  144.2238  161.6440 N.am    1  UNL1       -0.1956
     18 O         137.6919  144.7812  162.4397 O.3     1  UNL1       -0.2951
     19 H         138.8447  143.2705  161.3981 H       1  UNL1        0.1823
     20 H         137.8372  145.7276  162.5949 H       1  UNL1        0.2414
     21 C         142.6573  142.0048  165.6285 C.ar    1  UNL1        0.1488
     22 C         141.4975  142.9544  165.5762 C.ar    1  UNL1        0.0389
     23 C         141.1095  143.5936  164.2759 C.ar    1  UNL1        0.0215
     24 C         141.8813  143.2831  163.0279 C.ar    1  UNL1        0.1063
     25 C         143.0412  142.3334  163.0801 C.ar    1  UNL1        0.0215
     26 C         143.4292  141.6942  164.3804 C.ar    1  UNL1        0.0389
     27 O         143.0453  141.3656  166.9289 O.3     1  UNL1       -0.4210
     28 C         142.5355  139.9976  167.2738 C.2     1  UNL1        0.3457
     29 O         142.9797  139.3292  168.5411 O.2     1  UNL1       -0.2445
     30 C         139.6739  137.8991  164.5068 C.ar    1  UNL1        0.1387
     31 C         139.1565  138.8762  165.5204 C.ar    1  UNL1        0.0371
     32 C         140.1104  139.5757  166.4428 C.ar    1  UNL1        0.0096
     33 C         141.5817  139.2981  166.3514 C.ar    1  UNL1        0.0762
     34 C         142.0990  138.3209  165.3378 C.ar    1  UNL1        0.0096
     35 C         141.1451  137.6214  164.4154 C.ar    1  UNL1        0.0371
     36 C         138.3493  137.8260  162.2728 C.3     1  UNL1        0.2525
     37 O         138.7200  137.1995  163.5844 O.3     1  UNL1       -0.4714
@<TRIPOS>BOND
     1    36    37    1
     2    37    30    1
     3    30    31   ar
     4    31    32   ar
     5    32    33   ar
     6    33    28    1
     7    28    29    2
     8    28    27    1
     9    27    21    1
    10    21    22   ar
    11    22    23   ar
    12    23    24   ar
    13    24     1    1
    14     1     2    2
    15     1     3    2
    16     1     4    1
    17     4    15    1
    18    15    16    2
    19    15    17   am
    20    17    18    1
    21     4     5    1
    22     5     6    1
    23     6     7    1
    24     7     8    1
    25     8     9    1
    26     9    10    1
    27    10    11    1
    28    11    12    1
    29     7    13    1
    30    24    25   ar
    31    25    26   ar
    32    33    34   ar
    33    34    35   ar
    34    35    30   ar
    35    26    21   ar
    36    13     4    1
    37    12     7    1
    38    17    19    1
    39    18    20    1
    40    10    14    1
@<TRIPOS>MOLECULE
*****
 37 40 0 0 0
SMALL
GASTEIGER

@<TRIPOS>ATOM
      1 S         139.1164  139.9825  164.9543 S.O2    1  UNL1        0.0134
      2 O         137.7891  140.2254  164.9948 O.2     1  UNL1       -0.1683
      3 O         140.5715  139.6966  164.7279 O.2     1  UNL1       -0.1683
      4 C         139.3681  140.0957  166.4287 C.3     1  UNL1        0.1845
      5 C         139.9874  141.4119  166.0623 C.3     1  UNL1        0.0313
      6 C         140.4814  142.0585  167.3224 C.3     1  UNL1        0.0024
      7 C         140.1674  141.1420  168.4677 C.3     1  UNL1        0.0048
      8 C         139.7902  140.1283  169.5069 C.3     1  UNL1        0.0172
      9 C         140.1083  140.3805  170.9509 C.3     1  UNL1        0.0686
     10 N         140.8037  141.6464  171.3556 N.3     1  UNL1       -0.2975
     11 C         141.1810  142.6601  170.3164 C.3     1  UNL1        0.0686
     12 C         140.8628  142.4079  168.8724 C.3     1  UNL1        0.0172
     13 C         139.4793  139.9289  167.9153 C.3     1  UNL1        0.0314
     14 H         141.6663  141.3713  171.8253 H       1  UNL1        0.1232
     15 C         138.6962  138.7560  166.4869 C.2     1  UNL1        0.2644
     16 O         139.0707  137.6306  165.8419 O.2     1  UNL1       -0.2713
     17 N         137.4707  138.5674  167.3310 N.am    1  UNL1       -0.1956
     18 O         136.7989  137.2275  167.3891 O.3     1  UNL1       -0.2951
     19 H         137.1073  139.3231  167.8468 H       1  UNL1        0.1823
     20 H         137.2804  136.5998  166.8278 H       1  UNL1        0.2414
     21 C         138.3613  139.6427  160.5312 C.ar    1  UNL1        0.1488
     22 C         139.2147  138.6240  161.2268 C.ar    1  UNL1        0.0389
     23 C         139.4664  138.7373  162.7012 C.ar    1  UNL1        0.0215
     24 C         138.8647  139.8692  163.4799 C.ar    1  UNL1        0.1063
     25 C         138.0113  140.8879  162.7843 C.ar    1  UNL1        0.0215
     26 C         137.7596  140.7747  161.3100 C.ar    1  UNL1        0.0389
     27 O         138.1096  139.5294  159.0568 O.3     1  UNL1       -0.4210
     28 C         139.1932  139.8831  158.0816 C.2     1  UNL1        0.3457
     29 O         139.2213  141.2448  157.4530 O.2     1  UNL1       -0.2445
     30 C         142.3593  136.8592  157.0417 C.ar    1  UNL1        0.1387
     31 C         142.6486  137.9315  158.0500 C.ar    1  UNL1        0.0371
     32 C         141.5932  138.9395  158.3966 C.ar    1  UNL1        0.0096
     33 C         140.2486  138.8751  157.7350 C.ar    1  UNL1        0.0762
     34 C         139.9593  137.8028  156.7267 C.ar    1  UNL1        0.0096
     35 C         141.0147  136.7949  156.3801 C.ar    1  UNL1        0.0371
     36 C         143.2872  134.4361  157.1762 C.3     1  UNL1        0.2525
     37 O         143.4147  135.8513  156.6951 O.3     1  UNL1       -0.4714
@<TRIPOS>BOND
     1    36    37    1
     2    37    30    1
     3    30    31   ar
     4    31    32   ar
     5    32    33   ar
     6    33    28    1
     7    28    29    2
     8    28    27    1
     9    27    21    1
    10    21    22   ar
    11    22    23   ar
    12    23    24   ar
    13    24     1    1
    14     1     2    2
    15     1     3    2
    16     1     4    1
    17     4    15    1
    18    15    16    2
    19    15    17   am
    20    17    18    1
    21     4     5    1
    22     5     6    1
    23     6     7    1
    24     7     8    1
    25     8     9    1
    26     9    10    1
    27    10    11    1
    28    11    12    1
    29     7    13    1
    30    24    25   ar
    31    25    26   ar
    32    33    34   ar
    33    34    35   ar
    34    35    30   ar
    35    26    21   ar
    36    13     4    1
    37    12     7    1
    38    17    19    1
    39    18    20    1
    40    10    14    1
@<TRIPOS>MOLECULE
*****
 37 40 0 0 0
SMALL
GASTEIGER

@<TRIPOS>ATOM
      1 S         139.0185  140.2117  164.9791 S.O2    1  UNL1        0.0134
      2 O         137.6919  140.4099  165.1314 O.2     1  UNL1       -0.1683
      3 O         140.4595  139.9840  164.6298 O.2     1  UNL1       -0.1683
      4 C         139.3787  140.2586  166.4344 C.3     1  UNL1        0.1845
      5 C         139.9354  141.6086  166.0916 C.3     1  UNL1        0.0313
      6 C         140.5075  142.2056  167.3431 C.3     1  UNL1        0.0024
      7 C         140.3044  141.2245  168.4595 C.3     1  UNL1        0.0048
      8 C         140.0326  140.1498  169.4701 C.3     1  UNL1        0.0172
      9 C         140.4533  140.3389  170.8974 C.3     1  UNL1        0.0686
     10 N         141.1457  141.6025  171.3142 N.3     1  UNL1       -0.2975
     11 C         141.4174  142.6772  170.3036 C.3     1  UNL1        0.0686
     12 C         140.9968  142.4881  168.8763 C.3     1  UNL1        0.0172
     13 C         139.6068  140.0211  167.8979 C.3     1  UNL1        0.0314
     14 H         142.0481  141.3293  171.7033 H       1  UNL1        0.1232
     15 C         138.7468  138.8988  166.4731 C.2     1  UNL1        0.2644
     16 O         139.1500  137.7963  165.8063 O.2     1  UNL1       -0.2713
     17 N         137.5327  138.6596  167.3209 N.am    1  UNL1       -0.1956
     18 O         136.9009  137.2997  167.3595 O.3     1  UNL1       -0.2951
     19 H         137.1506  139.3952  167.8521 H       1  UNL1        0.1823
     20 H         137.3970  136.6963  166.7845 H       1  UNL1        0.2414
     21 C         137.9380  140.0711  160.6130 C.ar    1  UNL1        0.1488
     22 C         137.9713  141.3851  161.3355 C.ar    1  UNL1        0.0389
     23 C         138.3315  141.4320  162.7908 C.ar    1  UNL1        0.0215
     24 C         138.6584  140.1648  163.5237 C.ar    1  UNL1        0.1063
     25 C         138.6251  138.8507  162.8013 C.ar    1  UNL1        0.0215
     26 C         138.2649  138.8038  161.3460 C.ar    1  UNL1        0.0389
     27 O         137.5779  140.0242  159.1577 O.3     1  UNL1       -0.4210
     28 C         138.6585  140.0207  158.1173 C.2     1  UNL1        0.3457
     29 O         138.3459  139.5971  156.7127 O.2     1  UNL1       -0.2445
     30 C         142.8379  141.2811  159.2100 C.ar    1  UNL1        0.1387
     31 C         141.8121  142.3153  158.8518 C.ar    1  UNL1        0.0371
     32 C         140.4189  141.8951  158.4876 C.ar    1  UNL1        0.0096
     33 C         140.0516  140.4408  158.4815 C.ar    1  UNL1        0.0762
     34 C         141.0774  139.4067  158.8397 C.ar    1  UNL1        0.0096
     35 C         142.4705  139.8268  159.2039 C.ar    1  UNL1        0.0371
     36 C         144.4602  142.5915  160.7596 C.3     1  UNL1        0.2525
     37 O         144.2310  141.7012  159.5742 O.3     1  UNL1       -0.4714
@<TRIPOS>BOND
     1    36    37    1
     2    37    30    1
     3    30    31   ar
     4    31    32   ar
     5    32    33   ar
     6    33    28    1
     7    28    29    2
     8    28    27    1
     9    27    21    1
    10    21    22   ar
    11    22    23   ar
    12    23    24   ar
    13    24     1    1
    14     1     2    2
    15     1     3    2
    16     1     4    1
    17     4    15    1
    18    15    16    2
    19    15    17   am
    20    17    18    1
    21     4     5    1
    22     5     6    1
    23     6     7    1
    24     7     8    1
    25     8     9    1
    26     9    10    1
    27    10    11    1
    28    11    12    1
    29     7    13    1
    30    24    25   ar
    31    25    26   ar
    32    33    34   ar
    33    34    35   ar
    34    35    30   ar
    35    26    21   ar
    36    13     4    1
    37    12     7    1
    38    17    19    1
    39    18    20    1
    40    10    14    1
@<TRIPOS>MOLECULE
*****
 37 40 0 0 0
SMALL
GASTEIGER

@<TRIPOS>ATOM
      1 S         141.1491  139.1753  164.9164 S.O2    1  UNL1        0.0134
      2 O         140.6689  137.9138  164.9411 O.2     1  UNL1       -0.1683
      3 O         141.7292  140.5439  164.7149 O.2     1  UNL1       -0.1683
      4 C         140.8020  139.5308  166.3317 C.3     1  UNL1        0.1845
      5 C         142.2795  139.4066  166.5590 C.3     1  UNL1        0.0313
      6 C         142.5519  139.6958  168.0055 C.3     1  UNL1        0.0024
      7 C         141.2427  139.9988  168.6722 C.3     1  UNL1        0.0048
      8 C         139.8663  140.2786  169.1987 C.3     1  UNL1        0.0172
      9 C         139.6727  140.6230  170.6457 C.3     1  UNL1        0.0686
     10 N         140.8553  140.6877  171.5661 N.3     1  UNL1       -0.2975
     11 C         142.2317  140.4078  171.0395 C.3     1  UNL1        0.0686
     12 C         142.4253  140.0634  169.5925 C.3     1  UNL1        0.0172
     13 C         140.1612  139.8968  167.6377 C.3     1  UNL1        0.0314
     14 H         140.6838  140.0153  172.3137 H       1  UNL1        0.1232
     15 C         139.3971  139.5808  165.8086 C.2     1  UNL1        0.2644
     16 O         138.4246  138.6650  166.0034 O.2     1  UNL1       -0.2713
     17 N         138.9495  140.7417  164.9708 N.am    1  UNL1       -0.1956
     18 O         137.5445  140.7916  164.4477 O.3     1  UNL1       -0.2951
     19 H         139.5778  141.4710  164.7642 H       1  UNL1        0.1823
     20 H         137.0623  140.0025  164.7406 H       1  UNL1        0.2414
     21 C         142.1902  138.1087  160.6705 C.ar    1  UNL1        0.1488
     22 C         143.2681  138.1838  161.7108 C.ar    1  UNL1        0.0389
     23 C         142.9211  138.5393  163.1261 C.ar    1  UNL1        0.0215
     24 C         141.4961  138.8198  163.5011 C.ar    1  UNL1        0.1063
     25 C         140.4181  138.7446  162.4608 C.ar    1  UNL1        0.0215
     26 C         140.7652  138.3891  161.0454 C.ar    1  UNL1        0.0389
     27 O         142.5373  137.7531  159.2551 O.3     1  UNL1       -0.4210
     28 C         142.9758  138.8226  158.2991 C.2     1  UNL1        0.3457
     29 O         143.5875  138.4464  156.9821 O.2     1  UNL1       -0.2445
     30 C         142.4563  143.1594  159.3818 C.ar    1  UNL1        0.1387
     31 C         143.7609  142.4700  159.6517 C.ar    1  UNL1        0.0371
     32 C         143.9341  141.0244  159.2909 C.ar    1  UNL1        0.0096
     33 C         142.8027  140.2682  158.6600 C.ar    1  UNL1        0.0762
     34 C         141.4981  140.9576  158.3900 C.ar    1  UNL1        0.0096
     35 C         141.3249  142.4032  158.7509 C.ar    1  UNL1        0.0371
     36 C         140.9788  145.0864  160.3058 C.3     1  UNL1        0.2525
     37 O         142.2832  144.6050  159.7427 O.3     1  UNL1       -0.4714
@<TRIPOS>BOND
     1    36    37    1
     2    37    30    1
     3    30    31   ar
     4    31    32   ar
     5    32    33   ar
     6    33    28    1
     7    28    29    2
     8    28    27    1
     9    27    21    1
    10    21    22   ar
    11    22    23   ar
    12    23    24   ar
    13    24     1    1
    14     1     2    2
    15     1     3    2
    16     1     4    1
    17     4    15    1
    18    15    16    2
    19    15    17   am
    20    17    18    1
    21     4     5    1
    22     5     6    1
    23     6     7    1
    24     7     8    1
    25     8     9    1
    26     9    10    1
    27    10    11    1
    28    11    12    1
    29     7    13    1
    30    24    25   ar
    31    25    26   ar
    32    33    34   ar
    33    34    35   ar
    34    35    30   ar
    35    26    21   ar
    36    13     4    1
    37    12     7    1
    38    17    19    1
    39    18    20    1
    40    10    14    1
@<TRIPOS>MOLECULE
*****
 37 40 0 0 0
SMALL
GASTEIGER

@<TRIPOS>ATOM
      1 S         141.1093  138.7043  162.1347 S.O2    1  UNL1        0.0134
      2 O         140.9868  139.9690  161.6787 O.2     1  UNL1       -0.1683
      3 O         141.2821  137.2520  162.4683 O.2     1  UNL1       -0.1683
      4 C         140.8192  139.0008  163.5762 C.3     1  UNL1        0.1845
      5 C         139.5140  138.3189  163.2907 C.3     1  UNL1        0.0313
      6 C         138.7028  138.3236  164.5524 C.3     1  UNL1        0.0024
      7 C         139.5066  139.0084  165.6178 C.3     1  UNL1        0.0048
      8 C         140.4225  139.7121  166.5748 C.3     1  UNL1        0.0172
      9 C         139.9936  139.9386  167.9942 C.3     1  UNL1        0.0686
     10 N         138.6488  139.4613  168.4566 N.3     1  UNL1       -0.2975
     11 C         137.7329  138.7576  167.4996 C.3     1  UNL1        0.0686
     12 C         138.1618  138.5311  166.0802 C.3     1  UNL1        0.0172
     13 C         140.8146  139.4269  165.0145 C.3     1  UNL1        0.0314
     14 H         138.1462  140.2813  168.7962 H       1  UNL1        0.1232
     15 C         142.1850  139.6206  163.5605 C.2     1  UNL1        0.2644
     16 O         142.4804  140.9369  163.6127 O.2     1  UNL1       -0.2713
     17 N         143.4033  138.7494  163.4796 N.am    1  UNL1       -0.1956
     18 O         144.7691  139.3694  163.4639 O.3     1  UNL1       -0.2951
     19 H         143.3065  137.7706  163.4367 H       1  UNL1        0.1823
     20 H         144.6865  140.3346  163.5120 H       1  UNL1        0.2414
     21 C         141.9796  137.8147  157.8103 C.ar    1  UNL1        0.1488
     22 C         140.7222  138.5397  158.1886 C.ar    1  UNL1        0.0389
     23 C         140.4321  138.8362  159.6300 C.ar    1  UNL1        0.0215
     24 C         141.3994  138.4078  160.6933 C.ar    1  UNL1        0.1063
     25 C         142.6569  137.6828  160.3151 C.ar    1  UNL1        0.0215
     26 C         142.9470  137.3863  158.8736 C.ar    1  UNL1        0.0389
     27 O         142.2697  137.5182  156.3688 O.3     1  UNL1       -0.4210
     28 C         143.3444  136.5364  156.0066 C.2     1  UNL1        0.3457
     29 O         144.7218  137.0236  155.6666 O.2     1  UNL1       -0.2445
     30 C         142.4365  132.1295  155.9399 C.ar    1  UNL1        0.1387
     31 C         143.1984  132.7210  157.0887 C.ar    1  UNL1        0.0371
     32 C         143.5010  134.1900  157.1109 C.ar    1  UNL1        0.0096
     33 C         143.0418  135.0674  155.9844 C.ar    1  UNL1        0.0762
     34 C         142.2799  134.4759  154.8356 C.ar    1  UNL1        0.0096
     35 C         141.9773  133.0070  154.8134 C.ar    1  UNL1        0.0371
     36 C         143.2367  129.6710  155.6833 C.3     1  UNL1        0.2525
     37 O         142.1339  130.6605  155.9177 O.3     1  UNL1       -0.4714
@<TRIPOS>BOND
     1    36    37    1
     2    37    30    1
     3    30    31   ar
     4    31    32   ar
     5    32    33   ar
     6    33    28    1
     7    28    29    2
     8    28    27    1
     9    27    21    1
    10    21    22   ar
    11    22    23   ar
    12    23    24   ar
    13    24     1    1
    14     1     2    2
    15     1     3    2
    16     1     4    1
    17     4    15    1
    18    15    16    2
    19    15    17   am
    20    17    18    1
    21     4     5    1
    22     5     6    1
    23     6     7    1
    24     7     8    1
    25     8     9    1
    26     9    10    1
    27    10    11    1
    28    11    12    1
    29     7    13    1
    30    24    25   ar
    31    25    26   ar
    32    33    34   ar
    33    34    35   ar
    34    35    30   ar
    35    26    21   ar
    36    13     4    1
    37    12     7    1
    38    17    19    1
    39    18    20    1
    40    10    14    1
@<TRIPOS>MOLECULE
*****
 37 40 0 0 0
SMALL
GASTEIGER

@<TRIPOS>ATOM
      1 S         139.6768  141.1193  164.8485 S.O2    1  UNL1        0.0134
      2 O         140.9505  141.0260  164.4110 O.2     1  UNL1       -0.1683
      3 O         138.2118  141.1680  165.1672 O.2     1  UNL1       -0.1683
      4 C         139.9951  141.5737  166.2421 C.3     1  UNL1        0.1845
      5 C         139.6220  140.1698  166.6163 C.3     1  UNL1        0.0313
      6 C         139.7737  140.0302  168.1021 C.3     1  UNL1        0.0024
      7 C         140.2407  141.3479  168.6462 C.3     1  UNL1        0.0048
      8 C         140.7042  142.7183  169.0425 C.3     1  UNL1        0.0172
      9 C         140.9850  143.0276  170.4831 C.3     1  UNL1        0.0686
     10 N         140.8023  141.9665  171.5274 N.3     1  UNL1       -0.2975
     11 C         140.3388  140.5961  171.1312 C.3     1  UNL1        0.0686
     12 C         140.0580  140.2868  169.6906 C.3     1  UNL1        0.0172
     13 C         140.3774  142.3018  167.4967 C.3     1  UNL1        0.0314
     14 H         140.1211  142.3258  172.1962 H       1  UNL1        0.1232
     15 C         140.3016  142.8826  165.5767 C.2     1  UNL1        0.2644
     16 O         141.5225  143.3782  165.2828 O.2     1  UNL1       -0.2713
     17 N         139.1842  143.7940  165.1638 N.am    1  UNL1       -0.1956
     18 O         139.4909  145.1029  164.4984 O.3     1  UNL1       -0.2951
     19 H         138.2494  143.5332  165.3296 H       1  UNL1        0.1823
     20 H         140.4516  145.2041  164.4114 H       1  UNL1        0.2414
     21 C         138.7220  139.7561  160.6676 C.ar    1  UNL1        0.1488
     22 C         140.1035  139.5682  161.2207 C.ar    1  UNL1        0.0389
     23 C         140.4218  140.0226  162.6143 C.ar    1  UNL1        0.0215
     24 C         139.3585  140.6649  163.4549 C.ar    1  UNL1        0.1063
     25 C         137.9769  140.8529  162.9019 C.ar    1  UNL1        0.0215
     26 C         137.6586  140.3985  161.5083 C.ar    1  UNL1        0.0389
     27 O         138.4037  139.3018  159.2740 O.3     1  UNL1       -0.4210
     28 C         138.5137  140.2635  158.1280 C.2     1  UNL1        0.3457
     29 O         137.7273  140.0273  156.8727 O.2     1  UNL1       -0.2445
     30 C         141.2024  143.8568  158.4563 C.ar    1  UNL1        0.1387
     31 C         139.7698  143.9499  158.8910 C.ar    1  UNL1        0.0371
     32 C         138.8735  142.7521  158.7816 C.ar    1  UNL1        0.0096
     33 C         139.4099  141.4613  158.2375 C.ar    1  UNL1        0.0762
     34 C         140.8425  141.3682  157.8028 C.ar    1  UNL1        0.0096
     35 C         141.7388  142.5660  157.9122 C.ar    1  UNL1        0.0371
     36 C         142.2360  145.9970  157.4067 C.3     1  UNL1        0.2525
     37 O         142.0986  145.0546  158.5657 O.3     1  UNL1       -0.4714
@<TRIPOS>BOND
     1    36    37    1
     2    37    30    1
     3    30    31   ar
     4    31    32   ar
     5    32    33   ar
     6    33    28    1
     7    28    29    2
     8    28    27    1
     9    27    21    1
    10    21    22   ar
    11    22    23   ar
    12    23    24   ar
    13    24     1    1
    14     1     2    2
    15     1     3    2
    16     1     4    1
    17     4    15    1
    18    15    16    2
    19    15    17   am
    20    17    18    1
    21     4     5    1
    22     5     6    1
    23     6     7    1
    24     7     8    1
    25     8     9    1
    26     9    10    1
    27    10    11    1
    28    11    12    1
    29     7    13    1
    30    24    25   ar
    31    25    26   ar
    32    33    34   ar
    33    34    35   ar
    34    35    30   ar
    35    26    21   ar
    36    13     4    1
    37    12     7    1
    38    17    19    1
    39    18    20    1
    40    10    14    1
@<TRIPOS>MOLECULE
*****
 37 40 0 0 0
SMALL
GASTEIGER

@<TRIPOS>ATOM
      1 S         139.0666  140.1464  164.9753 S.O2    1  UNL1        0.0134
      2 O         137.7372  140.3464  165.0991 O.2     1  UNL1       -0.1683
      3 O         140.5141  139.9142  164.6574 O.2     1  UNL1       -0.1683
      4 C         139.3984  140.2138  166.4366 C.3     1  UNL1        0.1845
      5 C         139.9895  141.5455  166.0800 C.3     1  UNL1        0.0313
      6 C         140.5486  142.1546  167.3316 C.3     1  UNL1        0.0024
      7 C         140.3030  141.1994  168.4618 C.3     1  UNL1        0.0048
      8 C         139.9889  140.1500  169.4865 C.3     1  UNL1        0.0172
      9 C         140.3847  140.3578  170.9183 C.3     1  UNL1        0.0686
     10 N         141.0945  141.6149  171.3254 N.3     1  UNL1       -0.2975
     11 C         141.4086  142.6643  170.3007 C.3     1  UNL1        0.0686
     12 C         141.0128  142.4565  168.8688 C.3     1  UNL1        0.0172
     13 C         139.5921  139.9999  167.9086 C.3     1  UNL1        0.0314
     14 H         141.9831  141.3310  171.7379 H       1  UNL1        0.1232
     15 C         138.7379  138.8681  166.4878 C.2     1  UNL1        0.2644
     16 O         139.1075  137.7557  165.8181 O.2     1  UNL1       -0.2713
     17 N         137.5314  138.6571  167.3537 N.am    1  UNL1       -0.1956
     18 O         136.8710  137.3113  167.4048 O.3     1  UNL1       -0.2951
     19 H         137.1729  139.4020  167.8884 H       1  UNL1        0.1823
     20 H         137.3456  136.6960  166.8243 H       1  UNL1        0.2414
     21 C         138.0711  139.9441  160.5915 C.ar    1  UNL1        0.1488
     22 C         137.7703  141.1890  161.3723 C.ar    1  UNL1        0.0389
     23 C         138.1021  141.2564  162.8335 C.ar    1  UNL1        0.0215
     24 C         138.7348  140.0789  163.5141 C.ar    1  UNL1        0.1063
     25 C         139.0356  138.8340  162.7334 C.ar    1  UNL1        0.0215
     26 C         138.7038  138.7665  161.2721 C.ar    1  UNL1        0.0389
     27 O         137.7393  139.8767  159.1303 O.3     1  UNL1       -0.4210
     28 C         138.7809  140.2232  158.1078 C.2     1  UNL1        0.3457
     29 O         139.4341  139.1375  157.3049 O.2     1  UNL1       -0.2445
     30 C         139.9456  144.5196  157.4495 C.ar    1  UNL1        0.1387
     31 C         140.5948  143.7259  158.5443 C.ar    1  UNL1        0.0371
     32 C         140.2065  142.2937  158.7637 C.ar    1  UNL1        0.0096
     33 C         139.1691  141.6554  157.8884 C.ar    1  UNL1        0.0762
     34 C         138.5200  142.4491  156.7935 C.ar    1  UNL1        0.0096
     35 C         138.9082  143.8812  156.5741 C.ar    1  UNL1        0.0371
     36 C         139.5364  146.8100  156.2932 C.3     1  UNL1        0.2525
     37 O         140.3339  145.9518  157.2300 O.3     1  UNL1       -0.4714
@<TRIPOS>BOND
     1    36    37    1
     2    37    30    1
     3    30    31   ar
     4    31    32   ar
     5    32    33   ar
     6    33    28    1
     7    28    29    2
     8    28    27    1
     9    27    21    1
    10    21    22   ar
    11    22    23   ar
    12    23    24   ar
    13    24     1    1
    14     1     2    2
    15     1     3    2
    16     1     4    1
    17     4    15    1
    18    15    16    2
    19    15    17   am
    20    17    18    1
    21     4     5    1
    22     5     6    1
    23     6     7    1
    24     7     8    1
    25     8     9    1
    26     9    10    1
    27    10    11    1
    28    11    12    1
    29     7    13    1
    30    24    25   ar
    31    25    26   ar
    32    33    34   ar
    33    34    35   ar
    34    35    30   ar
    35    26    21   ar
    36    13     4    1
    37    12     7    1
    38    17    19    1
    39    18    20    1
    40    10    14    1
@<TRIPOS>MOLECULE
*****
 37 40 0 0 0
SMALL
GASTEIGER

@<TRIPOS>ATOM
      1 S         140.6000  139.6755  165.0454 S.O2    1  UNL1        0.0134
      2 O         140.5714  138.3277  164.9735 O.2     1  UNL1       -0.1683
      3 O         140.5598  141.1724  164.9569 O.2     1  UNL1       -0.1683
      4 C         141.1886  139.7727  166.4217 C.3     1  UNL1        0.1845
      5 C         139.8167  140.2438  166.8042 C.3     1  UNL1        0.0313
      6 C         139.8186  140.5294  168.2768 C.3     1  UNL1        0.0024
      7 C         141.1916  140.2349  168.8044 C.3     1  UNL1        0.0048
      8 C         142.6034  139.9006  169.1851 C.3     1  UNL1        0.0172
      9 C         143.0510  140.0479  170.6092 C.3     1  UNL1        0.0686
     10 N         142.0868  140.5294  171.6525 N.3     1  UNL1       -0.2975
     11 C         140.6750  140.8637  171.2717 C.3     1  UNL1        0.0686
     12 C         140.2274  140.7164  169.8477 C.3     1  UNL1        0.0172
     13 C         142.0383  139.7672  167.6579 C.3     1  UNL1        0.0314
     14 H         142.4900  141.3737  172.0587 H       1  UNL1        0.1232
     15 C         142.4373  139.2814  165.7515 C.2     1  UNL1        0.2644
     16 O         143.0309  138.0806  165.9196 O.2     1  UNL1       -0.2713
     17 N         143.1615  140.1618  164.7766 N.am    1  UNL1       -0.1956
     18 O         144.4103  139.6703  164.1065 O.3     1  UNL1       -0.2951
     19 H         142.8172  141.0622  164.5765 H       1  UNL1        0.1823
     20 H         144.6092  138.7716  164.4126 H       1  UNL1        0.2414
     21 C         138.8342  139.3839  160.9167 C.ar    1  UNL1        0.1488
     22 C         138.6866  138.2419  161.8779 C.ar    1  UNL1        0.0389
     23 C         139.2752  138.3391  163.2542 C.ar    1  UNL1        0.0215
     24 C         140.0114  139.5783  163.6692 C.ar    1  UNL1        0.1063
     25 C         140.1591  140.7203  162.7079 C.ar    1  UNL1        0.0215
     26 C         139.5705  140.6231  161.3317 C.ar    1  UNL1        0.0389
     27 O         138.2457  139.2866  159.5404 O.3     1  UNL1       -0.4210
     28 C         139.0908  139.5940  158.3398 C.2     1  UNL1        0.3457
     29 O         138.8398  140.8414  157.5454 O.2     1  UNL1       -0.2445
     30 C         142.3788  136.7739  157.1211 C.ar    1  UNL1        0.1387
     31 C         141.0635  136.7486  156.4003 C.ar    1  UNL1        0.0371
     32 C         139.9675  137.6886  156.8066 C.ar    1  UNL1        0.0096
     33 C         140.1868  138.6540  157.9335 C.ar    1  UNL1        0.0762
     34 C         141.5021  138.6792  158.6543 C.ar    1  UNL1        0.0096
     35 C         142.5981  137.7392  158.2480 C.ar    1  UNL1        0.0371
     36 C         144.1278  135.9786  155.3721 C.3     1  UNL1        0.2525
     37 O         143.4748  135.8339  156.7148 O.3     1  UNL1       -0.4714
@<TRIPOS>BOND
     1    36    37    1
     2    37    30    1
     3    30    31   ar
     4    31    32   ar
     5    32    33   ar
     6    33    28    1
     7    28    29    2
     8    28    27    1
     9    27    21    1
    10    21    22   ar
    11    22    23   ar
    12    23    24   ar
    13    24     1    1
    14     1     2    2
    15     1     3    2
    16     1     4    1
    17     4    15    1
    18    15    16    2
    19    15    17   am
    20    17    18    1
    21     4     5    1
    22     5     6    1
    23     6     7    1
    24     7     8    1
    25     8     9    1
    26     9    10    1
    27    10    11    1
    28    11    12    1
    29     7    13    1
    30    24    25   ar
    31    25    26   ar
    32    33    34   ar
    33    34    35   ar
    34    35    30   ar
    35    26    21   ar
    36    13     4    1
    37    12     7    1
    38    17    19    1
    39    18    20    1
    40    10    14    1
@<TRIPOS>MOLECULE
*****
 37 40 0 0 0
SMALL
GASTEIGER

@<TRIPOS>ATOM
      1 S         142.5192  142.9402  160.7897 S.O2    1  UNL1        0.0134
      2 O         143.2309  143.8684  161.4637 O.2     1  UNL1       -0.1683
      3 O         141.8033  141.7856  160.1535 O.2     1  UNL1       -0.1683
      4 C         141.8600  143.8805  159.8247 C.3     1  UNL1        0.1845
      5 C         142.8696  143.3424  158.8544 C.3     1  UNL1        0.0313
      6 C         142.6521  144.0216  157.5348 C.3     1  UNL1        0.0024
      7 C         141.5081  144.9795  157.6894 C.3     1  UNL1        0.0048
      8 C         140.3555  145.8900  157.9935 C.3     1  UNL1        0.0172
      9 C         139.7988  146.7789  156.9212 C.3     1  UNL1        0.0686
     10 N         140.3948  146.7574  155.5448 N.3     1  UNL1       -0.2975
     11 C         141.5474  145.8469  155.2407 C.3     1  UNL1        0.0686
     12 C         142.1040  144.9580  156.3130 C.3     1  UNL1        0.0172
     13 C         141.0186  144.8923  159.1046 C.3     1  UNL1        0.0314
     14 H         140.7090  147.7070  155.3451 H       1  UNL1        0.1232
     15 C         140.9883  144.2221  160.9965 C.2     1  UNL1        0.2644
     16 O         140.0491  143.4374  161.5665 O.2     1  UNL1       -0.2713
     17 N         141.1149  145.5611  161.6606 N.am    1  UNL1       -0.1956
     18 O         140.2431  145.9025  162.8325 O.3     1  UNL1       -0.2951
     19 H         141.7703  146.2158  161.3273 H       1  UNL1        0.1823
     20 H         139.6591  145.1537  163.0301 H       1  UNL1        0.2414
     21 C         144.4966  140.1192  163.6847 C.ar    1  UNL1        0.1488
     22 C         143.9912  139.6096  162.3676 C.ar    1  UNL1        0.0389
     23 C         143.3320  140.5499  161.4026 C.ar    1  UNL1        0.0215
     24 C         143.1783  141.9998  161.7547 C.ar    1  UNL1        0.1063
     25 C         143.6838  142.5095  163.0718 C.ar    1  UNL1        0.0215
     26 C         144.3429  141.5692  164.0368 C.ar    1  UNL1        0.0389
     27 O         145.1558  139.1788  164.6497 O.3     1  UNL1       -0.4210
     28 C         144.3388  138.4900  165.7025 C.2     1  UNL1        0.3457
     29 O         145.0121  137.6320  166.7323 O.2     1  UNL1       -0.2445
     30 C         139.8681  138.9978  165.7712 C.ar    1  UNL1        0.1387
     31 C         140.7361  139.8789  166.6198 C.ar    1  UNL1        0.0371
     32 C         142.2264  139.7096  166.5969 C.ar    1  UNL1        0.0096
     33 C         142.8486  138.6593  165.7254 C.ar    1  UNL1        0.0762
     34 C         141.9805  137.7782  164.8767 C.ar    1  UNL1        0.0096
     35 C         140.4903  137.9474  164.8996 C.ar    1  UNL1        0.0371
     36 C         137.5645  138.5075  166.8682 C.3     1  UNL1        0.2525
     37 O         138.3779  139.1670  165.7941 O.3     1  UNL1       -0.4714
@<TRIPOS>BOND
     1    36    37    1
     2    37    30    1
     3    30    31   ar
     4    31    32   ar
     5    32    33   ar
     6    33    28    1
     7    28    29    2
     8    28    27    1
     9    27    21    1
    10    21    22   ar
    11    22    23   ar
    12    23    24   ar
    13    24     1    1
    14     1     2    2
    15     1     3    2
    16     1     4    1
    17     4    15    1
    18    15    16    2
    19    15    17   am
    20    17    18    1
    21     4     5    1
    22     5     6    1
    23     6     7    1
    24     7     8    1
    25     8     9    1
    26     9    10    1
    27    10    11    1
    28    11    12    1
    29     7    13    1
    30    24    25   ar
    31    25    26   ar
    32    33    34   ar
    33    34    35   ar
    34    35    30   ar
    35    26    21   ar
    36    13     4    1
    37    12     7    1
    38    17    19    1
    39    18    20    1
    40    10    14    1
