@<TRIPOS>MOLECULE
*****
 28 31 0 0 0
SMALL
GASTEIGER

@<TRIPOS>ATOM
      1 C         137.3310  138.1076  167.2561 C.3     1  UNL1        0.0420
      2 C         138.3035  139.1485  166.7861 C.3     1  UNL1        0.1912
      3 O         138.4042  139.4760  165.3258 O.3     1  UNL1       -0.3500
      4 C         139.3767  140.5169  164.8559 C.3     1  UNL1        0.1145
      5 C         140.3492  141.5577  164.3860 C.3     1  UNL1        0.0463
      6 C         140.4498  141.8852  162.9257 C.3     1  UNL1        0.0746
      7 N         139.5779  141.1719  161.9352 N.3     1  UNL1       -0.2722
      8 C         138.6054  140.1311  162.4051 C.3     1  UNL1        0.0746
      9 C         138.5048  139.8035  163.8654 C.3     1  UNL1        0.0463
     10 C         140.2486  141.2302  165.8463 C.3     1  UNL1        0.1254
     11 N         140.1480  140.9026  167.3067 N.am    1  UNL1       -0.2522
     12 C         139.1755  139.8618  167.7766 C.2     1  UNL1        0.2566
     13 O         139.0748  139.5342  169.2369 O.2     1  UNL1       -0.2719
     14 C         141.0199  141.6159  168.2971 C.ar    1  UNL1        0.0815
     15 C         140.4987  142.8195  169.0249 C.ar    1  UNL1        0.0172
     16 C         141.3706  143.5328  170.0154 C.ar    1  UNL1        0.0014
     17 C         142.7637  143.0426  170.2780 C.ar    1  UNL1        0.0024
     18 C         143.2849  141.8389  169.5501 C.ar    1  UNL1        0.0309
     19 C         142.4130  141.1256  168.5597 C.ar    1  UNL1        0.1537
     20 F         142.9342  139.9220  167.8319 F       1  UNL1       -0.2029
     21 C         139.6786  141.4995  160.4748 C.3     1  UNL1        0.0768
     22 C         140.7348  140.8492  159.6314 C.3     1  UNL1        0.0437
     23 C         141.7709  139.9728  160.2707 C.ar    1  UNL1       -0.0208
     24 C         141.4848  138.5184  160.5006 C.ar    1  UNL1       -0.0042
     25 C         142.5208  137.6422  161.1398 C.ar    1  UNL1       -0.0003
     26 C         143.8430  138.2203  161.5493 C.ar    1  UNL1       -0.0000
     27 C         144.1291  139.6746  161.3194 C.ar    1  UNL1       -0.0003
     28 C         143.0931  140.5509  160.6801 C.ar    1  UNL1       -0.0042
@<TRIPOS>BOND
     1     1     2    1
     2     2     3    1
     3     3     4    1
     4     4     5    1
     5     5     6    1
     6     6     7    1
     7     7    21    1
     8    21    22    1
     9    22    23    1
    10    23    24   ar
    11    24    25   ar
    12    25    26   ar
    13    26    27   ar
    14    27    28   ar
    15     7     8    1
    16     8     9    1
    17     4    10    1
    18    10    11    1
    19    11    14    1
    20    14    15   ar
    21    15    16   ar
    22    16    17   ar
    23    17    18   ar
    24    18    19   ar
    25    19    20    1
    26    11    12   am
    27    12    13    2
    28    12     2    1
    29     9     4    1
    30    19    14   ar
    31    28    23   ar
@<TRIPOS>MOLECULE
*****
 28 31 0 0 0
SMALL
GASTEIGER

@<TRIPOS>ATOM
      1 C         144.4677  142.4348  160.7388 C.3     1  UNL1        0.0420
      2 C         143.1772  143.1723  160.5362 C.3     1  UNL1        0.1912
      3 O         142.8972  143.8483  159.2268 O.3     1  UNL1       -0.3500
      4 C         141.6068  144.5857  159.0242 C.3     1  UNL1        0.1145
      5 C         140.3164  145.3231  158.8217 C.3     1  UNL1        0.0463
      6 C         140.0364  145.9991  157.5123 C.3     1  UNL1        0.0746
      7 N         141.0468  145.9377  156.4054 N.3     1  UNL1       -0.2722
      8 C         142.3372  145.2003  156.6079 C.3     1  UNL1        0.0746
      9 C         142.6172  144.5243  157.9173 C.3     1  UNL1        0.0463
     10 C         140.5963  144.6471  160.1312 C.3     1  UNL1        0.1254
     11 N         140.8764  143.9711  161.4406 N.am    1  UNL1       -0.2522
     12 C         142.1668  143.2337  161.6431 C.2     1  UNL1        0.2566
     13 O         142.4468  142.5577  162.9526 O.2     1  UNL1       -0.2719
     14 C         139.8660  144.0325  162.5475 C.ar    1  UNL1        0.0815
     15 C         140.1660  144.8101  163.7946 C.ar    1  UNL1        0.0172
     16 C         139.1556  144.8715  164.9015 C.ar    1  UNL1        0.0014
     17 C         137.8451  144.1553  164.7614 C.ar    1  UNL1        0.0024
     18 C         137.5450  143.3777  163.5142 C.ar    1  UNL1        0.0309
     19 C         138.5554  143.3163  162.4073 C.ar    1  UNL1        0.1537
     20 F         138.2554  142.5387  161.1602 F       1  UNL1       -0.2029
     21 C         140.7668  146.6137  155.0959 C.3     1  UNL1        0.0768
     22 C         139.4151  147.2084  154.8329 C.3     1  UNL1        0.0437
     23 C         139.2570  148.6968  154.7334 C.ar    1  UNL1       -0.0208
     24 C         139.6996  149.4168  153.4942 C.ar    1  UNL1       -0.0042
     25 C         139.5415  150.9051  153.3948 C.ar    1  UNL1       -0.0003
     26 C         138.9408  151.6734  154.5345 C.ar    1  UNL1       -0.0000
     27 C         138.4981  150.9533  155.7736 C.ar    1  UNL1       -0.0003
     28 C         138.6563  149.4650  155.8731 C.ar    1  UNL1       -0.0042
@<TRIPOS>BOND
     1     1     2    1
     2     2     3    1
     3     3     4    1
     4     4     5    1
     5     5     6    1
     6     6     7    1
     7     7    21    1
     8    21    22    1
     9    22    23    1
    10    23    24   ar
    11    24    25   ar
    12    25    26   ar
    13    26    27   ar
    14    27    28   ar
    15     7     8    1
    16     8     9    1
    17     4    10    1
    18    10    11    1
    19    11    14    1
    20    14    15   ar
    21    15    16   ar
    22    16    17   ar
    23    17    18   ar
    24    18    19   ar
    25    19    20    1
    26    11    12   am
    27    12    13    2
    28    12     2    1
    29     9     4    1
    30    19    14   ar
    31    28    23   ar
@<TRIPOS>MOLECULE
*****
 28 31 0 0 0
SMALL
GASTEIGER

@<TRIPOS>ATOM
      1 C         137.3983  138.1910  167.2017 C.3     1  UNL1        0.0420
      2 C         138.2819  139.3268  166.7781 C.3     1  UNL1        0.1912
      3 O         138.2500  139.8130  165.3595 O.3     1  UNL1       -0.3500
      4 C         139.1336  140.9488  164.9359 C.3     1  UNL1        0.1145
      5 C         140.0171  142.0846  164.5124 C.3     1  UNL1        0.0463
      6 C         139.9853  142.5708  163.0938 C.3     1  UNL1        0.0746
      7 N         139.0699  141.9213  162.0987 N.3     1  UNL1       -0.2722
      8 C         138.1863  140.7855  162.5222 C.3     1  UNL1        0.0746
      9 C         138.2182  140.2993  163.9408 C.3     1  UNL1        0.0463
     10 C         140.0490  141.5983  165.9310 C.3     1  UNL1        0.1254
     11 N         140.0808  141.1120  167.3497 N.am    1  UNL1       -0.2522
     12 C         139.1972  139.9763  167.7732 C.2     1  UNL1        0.2566
     13 O         139.2291  139.4900  169.1919 O.2     1  UNL1       -0.2719
     14 C         140.9961  141.7615  168.3448 C.ar    1  UNL1        0.0815
     15 C         140.5264  142.9481  169.1330 C.ar    1  UNL1        0.0172
     16 C         141.4418  143.5976  170.1281 C.ar    1  UNL1        0.0014
     17 C         142.8269  143.0606  170.3350 C.ar    1  UNL1        0.0024
     18 C         143.2968  141.8739  169.5467 C.ar    1  UNL1        0.0309
     19 C         142.3814  141.2244  168.5516 C.ar    1  UNL1        0.1537
     20 F         142.8512  140.0378  167.7634 F       1  UNL1       -0.2029
     21 C         139.0381  142.4076  160.6800 C.3     1  UNL1        0.0768
     22 C         139.9626  143.5046  160.2423 C.3     1  UNL1        0.0437
     23 C         139.8431  144.0802  158.8622 C.ar    1  UNL1       -0.0208
     24 C         140.3375  145.4686  158.5833 C.ar    1  UNL1       -0.0042
     25 C         140.2180  146.0441  157.2033 C.ar    1  UNL1       -0.0003
     26 C         139.6041  145.2312  156.1022 C.ar    1  UNL1       -0.0000
     27 C         139.1098  143.8428  156.3811 C.ar    1  UNL1       -0.0003
     28 C         139.2293  143.2673  157.7611 C.ar    1  UNL1       -0.0042
@<TRIPOS>BOND
     1     1     2    1
     2     2     3    1
     3     3     4    1
     4     4     5    1
     5     5     6    1
     6     6     7    1
     7     7    21    1
     8    21    22    1
     9    22    23    1
    10    23    24   ar
    11    24    25   ar
    12    25    26   ar
    13    26    27   ar
    14    27    28   ar
    15     7     8    1
    16     8     9    1
    17     4    10    1
    18    10    11    1
    19    11    14    1
    20    14    15   ar
    21    15    16   ar
    22    16    17   ar
    23    17    18   ar
    24    18    19   ar
    25    19    20    1
    26    11    12   am
    27    12    13    2
    28    12     2    1
    29     9     4    1
    30    19    14   ar
    31    28    23   ar
@<TRIPOS>MOLECULE
*****
 28 31 0 0 0
SMALL
GASTEIGER

@<TRIPOS>ATOM
      1 C         138.4943  139.1469  164.5763 C.3     1  UNL1        0.0420
      2 C         139.2113  140.4510  164.7645 C.3     1  UNL1        0.1912
      3 O         139.2935  141.4318  163.6326 O.3     1  UNL1       -0.3500
      4 C         140.0105  142.7359  163.8207 C.3     1  UNL1        0.1145
      5 C         140.7274  144.0399  164.0090 C.3     1  UNL1        0.0463
      6 C         140.8097  145.0207  162.8771 C.3     1  UNL1        0.0746
      7 N         140.1751  144.6974  161.5569 N.3     1  UNL1       -0.2722
      8 C         139.4581  143.3934  161.3687 C.3     1  UNL1        0.0746
      9 C         139.3759  142.4126  162.5006 C.3     1  UNL1        0.0463
     10 C         140.6452  143.0591  165.1409 C.3     1  UNL1        0.1254
     11 N         140.5628  142.0783  166.2728 N.am    1  UNL1       -0.2522
     12 C         139.8459  140.7743  166.0846 C.2     1  UNL1        0.2566
     13 O         139.7636  139.7934  167.2165 O.2     1  UNL1       -0.2719
     14 C         141.1975  142.4015  167.5929 C.ar    1  UNL1        0.0815
     15 C         140.4085  143.1166  168.6493 C.ar    1  UNL1        0.0172
     16 C         141.0431  143.4399  169.9695 C.ar    1  UNL1        0.0014
     17 C         142.4668  143.0480  170.2332 C.ar    1  UNL1        0.0024
     18 C         143.2559  142.3329  169.1767 C.ar    1  UNL1        0.0309
     19 C         142.6212  142.0096  167.8566 C.ar    1  UNL1        0.1537
     20 F         143.4103  141.2946  166.8002 F       1  UNL1       -0.2029
     21 C         140.2574  145.6783  160.4250 C.3     1  UNL1        0.0768
     22 C         140.9311  145.2889  159.1427 C.3     1  UNL1        0.0437
     23 C         140.1446  145.2422  157.8662 C.ar    1  UNL1       -0.0208
     24 C         139.9295  146.4961  157.0716 C.ar    1  UNL1       -0.0042
     25 C         139.1429  146.4494  155.7952 C.ar    1  UNL1       -0.0003
     26 C         138.5716  145.1488  155.3135 C.ar    1  UNL1       -0.0000
     27 C         138.7867  143.8950  156.1081 C.ar    1  UNL1       -0.0003
     28 C         139.5732  143.9417  157.3845 C.ar    1  UNL1       -0.0042
@<TRIPOS>BOND
     1     1     2    1
     2     2     3    1
     3     3     4    1
     4     4     5    1
     5     5     6    1
     6     6     7    1
     7     7    21    1
     8    21    22    1
     9    22    23    1
    10    23    24   ar
    11    24    25   ar
    12    25    26   ar
    13    26    27   ar
    14    27    28   ar
    15     7     8    1
    16     8     9    1
    17     4    10    1
    18    10    11    1
    19    11    14    1
    20    14    15   ar
    21    15    16   ar
    22    16    17   ar
    23    17    18   ar
    24    18    19   ar
    25    19    20    1
    26    11    12   am
    27    12    13    2
    28    12     2    1
    29     9     4    1
    30    19    14   ar
    31    28    23   ar
@<TRIPOS>MOLECULE
*****
 28 31 0 0 0
SMALL
GASTEIGER

@<TRIPOS>ATOM
      1 C         144.3442  137.3574  167.0490 C.3     1  UNL1        0.0420
      2 C         143.5325  138.5612  166.6721 C.3     1  UNL1        0.1912
      3 O         143.4332  138.9788  165.2348 O.3     1  UNL1       -0.3500
      4 C         142.6215  140.1826  164.8579 C.3     1  UNL1        0.1145
      5 C         141.8099  141.3864  164.4810 C.3     1  UNL1        0.0463
      6 C         141.7106  141.8040  163.0438 C.3     1  UNL1        0.0746
      7 N         142.4229  141.0177  161.9834 N.3     1  UNL1       -0.2722
      8 C         143.2346  139.8139  162.3603 C.3     1  UNL1        0.0746
      9 C         143.3339  139.3964  163.7975 C.3     1  UNL1        0.0463
     10 C         141.9092  140.9689  165.9183 C.3     1  UNL1        0.1254
     11 N         142.0086  140.5513  167.3556 N.am    1  UNL1       -0.2522
     12 C         142.8202  139.3475  167.7325 C.2     1  UNL1        0.2566
     13 O         142.9195  138.9299  169.1698 O.2     1  UNL1       -0.2719
     14 C         141.2962  141.3375  168.4160 C.ar    1  UNL1        0.0815
     15 C         141.8776  142.6290  168.9098 C.ar    1  UNL1        0.0172
     16 C         141.1652  143.4153  169.9702 C.ar    1  UNL1        0.0014
     17 C         139.8716  142.9100  170.5367 C.ar    1  UNL1        0.0024
     18 C         139.2901  141.6184  170.0429 C.ar    1  UNL1        0.0309
     19 C         140.0025  140.8321  168.9825 C.ar    1  UNL1        0.1537
     20 F         139.4211  139.5406  168.4887 F       1  UNL1       -0.2029
     21 C         142.3236  141.4353  160.5461 C.3     1  UNL1        0.0768
     22 C         141.2543  140.8551  159.6687 C.3     1  UNL1        0.0437
     23 C         140.0622  140.1835  160.2835 C.ar    1  UNL1       -0.0208
     24 C         138.8403  140.9855  160.6205 C.ar    1  UNL1       -0.0042
     25 C         137.6483  140.3138  161.2352 C.ar    1  UNL1       -0.0003
     26 C         137.6782  138.8401  161.5129 C.ar    1  UNL1       -0.0000
     27 C         138.9001  138.0380  161.1759 C.ar    1  UNL1       -0.0003
     28 C         140.0921  138.7097  160.5611 C.ar    1  UNL1       -0.0042
@<TRIPOS>BOND
     1     1     2    1
     2     2     3    1
     3     3     4    1
     4     4     5    1
     5     5     6    1
     6     6     7    1
     7     7    21    1
     8    21    22    1
     9    22    23    1
    10    23    24   ar
    11    24    25   ar
    12    25    26   ar
    13    26    27   ar
    14    27    28   ar
    15     7     8    1
    16     8     9    1
    17     4    10    1
    18    10    11    1
    19    11    14    1
    20    14    15   ar
    21    15    16   ar
    22    16    17   ar
    23    17    18   ar
    24    18    19   ar
    25    19    20    1
    26    11    12   am
    27    12    13    2
    28    12     2    1
    29     9     4    1
    30    19    14   ar
    31    28    23   ar
@<TRIPOS>MOLECULE
*****
 28 31 0 0 0
SMALL
GASTEIGER

@<TRIPOS>ATOM
      1 C         137.3084  138.1081  167.2147 C.3     1  UNL1        0.0420
      2 C         138.3198  139.1131  166.7488 C.3     1  UNL1        0.1912
      3 O         138.4667  139.4062  165.2851 O.3     1  UNL1       -0.3500
      4 C         139.4782  140.4112  164.8192 C.3     1  UNL1        0.1145
      5 C         140.4896  141.4162  164.3534 C.3     1  UNL1        0.0463
      6 C         140.6365  141.7093  162.8897 C.3     1  UNL1        0.0746
      7 N         139.7719  140.9975  161.8918 N.3     1  UNL1       -0.2722
      8 C         138.7604  139.9925  162.3576 C.3     1  UNL1        0.0746
      9 C         138.6136  139.6994  163.8213 C.3     1  UNL1        0.0463
     10 C         140.3428  141.1230  165.8171 C.3     1  UNL1        0.1254
     11 N         140.1959  140.8299  167.2809 N.am    1  UNL1       -0.2522
     12 C         139.1844  139.8249  167.7467 C.2     1  UNL1        0.2566
     13 O         139.0375  139.5317  169.2104 O.2     1  UNL1       -0.2719
     14 C         141.0605  141.5417  168.2788 C.ar    1  UNL1        0.0815
     15 C         140.5421  142.7574  168.9881 C.ar    1  UNL1        0.0172
     16 C         141.4066  143.4692  169.9860 C.ar    1  UNL1        0.0014
     17 C         142.7896  142.9653  170.2746 C.ar    1  UNL1        0.0024
     18 C         143.3081  141.7495  169.5652 C.ar    1  UNL1        0.0309
     19 C         142.4435  141.0377  168.5673 C.ar    1  UNL1        0.1537
     20 F         142.9620  139.8220  167.8580 F       1  UNL1       -0.2029
     21 C         139.9188  141.2907  160.4280 C.3     1  UNL1        0.0768
     22 C         140.6136  142.5421  159.9798 C.3     1  UNL1        0.0437
     23 C         141.9935  142.4660  159.3965 C.ar    1  UNL1       -0.0208
     24 C         142.1741  142.2518  157.9230 C.ar    1  UNL1       -0.0042
     25 C         143.5540  142.1757  157.3398 C.ar    1  UNL1       -0.0003
     26 C         144.7532  142.3138  158.2301 C.ar    1  UNL1       -0.0000
     27 C         144.5726  142.5279  159.7037 C.ar    1  UNL1       -0.0003
     28 C         143.1928  142.6041  160.2869 C.ar    1  UNL1       -0.0042
@<TRIPOS>BOND
     1     1     2    1
     2     2     3    1
     3     3     4    1
     4     4     5    1
     5     5     6    1
     6     6     7    1
     7     7    21    1
     8    21    22    1
     9    22    23    1
    10    23    24   ar
    11    24    25   ar
    12    25    26   ar
    13    26    27   ar
    14    27    28   ar
    15     7     8    1
    16     8     9    1
    17     4    10    1
    18    10    11    1
    19    11    14    1
    20    14    15   ar
    21    15    16   ar
    22    16    17   ar
    23    17    18   ar
    24    18    19   ar
    25    19    20    1
    26    11    12   am
    27    12    13    2
    28    12     2    1
    29     9     4    1
    30    19    14   ar
    31    28    23   ar
@<TRIPOS>MOLECULE
*****
 28 31 0 0 0
SMALL
GASTEIGER

@<TRIPOS>ATOM
      1 C         136.8799  137.9566  167.6624 C.3     1  UNL1        0.0420
      2 C         138.0906  138.6322  167.0898 C.3     1  UNL1        0.1912
      3 O         138.4503  138.4306  165.6476 O.3     1  UNL1       -0.3500
      4 C         139.6610  139.1062  165.0750 C.3     1  UNL1        0.1145
      5 C         140.8717  139.7817  164.5024 C.3     1  UNL1        0.0463
      6 C         141.2313  139.5801  163.0602 C.3     1  UNL1        0.0746
      7 N         140.3803  138.7029  162.1906 N.3     1  UNL1       -0.2722
      8 C         139.1696  138.0273  162.7631 C.3     1  UNL1        0.0746
      9 C         138.8100  138.2290  164.2053 C.3     1  UNL1        0.0463
     10 C         140.5120  139.9833  165.9446 C.3     1  UNL1        0.1254
     11 N         140.1523  140.1850  167.3869 N.am    1  UNL1       -0.2522
     12 C         138.9417  139.5094  167.9594 C.2     1  UNL1        0.2566
     13 O         138.5820  139.7110  169.4017 O.2     1  UNL1       -0.2719
     14 C         141.0034  141.0621  168.2565 C.ar    1  UNL1        0.0815
     15 C         140.4858  142.3937  168.7135 C.ar    1  UNL1        0.0172
     16 C         141.3368  143.2709  169.5832 C.ar    1  UNL1        0.0014
     17 C         142.7054  142.8165  169.9958 C.ar    1  UNL1        0.0024
     18 C         143.2231  141.4849  169.5388 C.ar    1  UNL1        0.0309
     19 C         142.3721  140.6077  168.6692 C.ar    1  UNL1        0.1537
     20 F         142.8897  139.2761  168.2122 F       1  UNL1       -0.2029
     21 C         140.7400  138.5013  160.7483 C.3     1  UNL1        0.0768
     22 C         139.7576  138.8601  159.6731 C.3     1  UNL1        0.0437
     23 C         139.5685  140.2949  159.2784 C.ar    1  UNL1       -0.0208
     24 C         138.3755  140.6975  158.4632 C.ar    1  UNL1       -0.0042
     25 C         138.1864  142.1322  158.0685 C.ar    1  UNL1       -0.0003
     26 C         139.1904  143.1643  158.4890 C.ar    1  UNL1       -0.0000
     27 C         140.3834  142.7617  159.3042 C.ar    1  UNL1       -0.0003
     28 C         140.5724  141.3270  159.6989 C.ar    1  UNL1       -0.0042
@<TRIPOS>BOND
     1     1     2    1
     2     2     3    1
     3     3     4    1
     4     4     5    1
     5     5     6    1
     6     6     7    1
     7     7    21    1
     8    21    22    1
     9    22    23    1
    10    23    24   ar
    11    24    25   ar
    12    25    26   ar
    13    26    27   ar
    14    27    28   ar
    15     7     8    1
    16     8     9    1
    17     4    10    1
    18    10    11    1
    19    11    14    1
    20    14    15   ar
    21    15    16   ar
    22    16    17   ar
    23    17    18   ar
    24    18    19   ar
    25    19    20    1
    26    11    12   am
    27    12    13    2
    28    12     2    1
    29     9     4    1
    30    19    14   ar
    31    28    23   ar
@<TRIPOS>MOLECULE
*****
 28 31 0 0 0
SMALL
GASTEIGER

@<TRIPOS>ATOM
      1 C         137.0382  137.9844  167.3632 C.3     1  UNL1        0.0420
      2 C         138.3116  138.6210  166.8907 C.3     1  UNL1        0.1912
      3 O         138.8115  138.3571  165.5013 O.3     1  UNL1       -0.3500
      4 C         140.0849  138.9938  165.0289 C.3     1  UNL1        0.1145
      5 C         141.3583  139.6304  164.5564 C.3     1  UNL1        0.0463
      6 C         141.8581  139.3665  163.1670 C.3     1  UNL1        0.0746
      7 N         141.0846  138.4660  162.2501 N.3     1  UNL1       -0.2722
      8 C         139.8113  137.8294  162.7225 C.3     1  UNL1        0.0746
      9 C         139.3114  138.0933  164.1119 C.3     1  UNL1        0.0463
     10 C         140.8584  139.8943  165.9458 C.3     1  UNL1        0.1254
     11 N         140.3585  140.1581  167.3353 N.am    1  UNL1       -0.2522
     12 C         139.0851  139.5215  167.8077 C.2     1  UNL1        0.2566
     13 O         138.5852  139.7853  169.1972 O.2     1  UNL1       -0.2719
     14 C         141.1319  141.0586  168.2523 C.ar    1  UNL1        0.0815
     15 C         140.5582  142.3821  168.6633 C.ar    1  UNL1        0.0172
     16 C         141.3317  143.2826  169.5803 C.ar    1  UNL1        0.0014
     17 C         142.6789  142.8596  170.0862 C.ar    1  UNL1        0.0024
     18 C         143.2527  141.5360  169.6751 C.ar    1  UNL1        0.0309
     19 C         142.4792  140.6355  168.7581 C.ar    1  UNL1        0.1537
     20 F         143.0530  139.3120  168.3471 F       1  UNL1       -0.2029
     21 C         141.5846  138.2022  160.8606 C.3     1  UNL1        0.0768
     22 C         142.9048  138.7612  160.4198 C.3     1  UNL1        0.0437
     23 C         143.1499  139.0505  158.9684 C.ar    1  UNL1       -0.0208
     24 C         143.8203  140.3290  158.5613 C.ar    1  UNL1       -0.0042
     25 C         144.0653  140.6182  157.1100 C.ar    1  UNL1       -0.0003
     26 C         143.6400  139.6288  156.0659 C.ar    1  UNL1       -0.0000
     27 C         142.9696  138.3503  156.4730 C.ar    1  UNL1       -0.0003
     28 C         142.7246  138.0611  157.9243 C.ar    1  UNL1       -0.0042
@<TRIPOS>BOND
     1     1     2    1
     2     2     3    1
     3     3     4    1
     4     4     5    1
     5     5     6    1
     6     6     7    1
     7     7    21    1
     8    21    22    1
     9    22    23    1
    10    23    24   ar
    11    24    25   ar
    12    25    26   ar
    13    26    27   ar
    14    27    28   ar
    15     7     8    1
    16     8     9    1
    17     4    10    1
    18    10    11    1
    19    11    14    1
    20    14    15   ar
    21    15    16   ar
    22    16    17   ar
    23    17    18   ar
    24    18    19   ar
    25    19    20    1
    26    11    12   am
    27    12    13    2
    28    12     2    1
    29     9     4    1
    30    19    14   ar
    31    28    23   ar
@<TRIPOS>MOLECULE
*****
 28 31 0 0 0
SMALL
GASTEIGER

@<TRIPOS>ATOM
      1 C         143.7883  138.7875  165.3145 C.3     1  UNL1        0.0420
      2 C         142.8464  139.3620  164.2983 C.3     1  UNL1        0.1912
      3 O         142.8261  138.8160  162.9013 O.3     1  UNL1       -0.3500
      4 C         141.8841  139.3906  161.8851 C.3     1  UNL1        0.1145
      5 C         140.9422  139.9651  160.8689 C.3     1  UNL1        0.0463
      6 C         140.9219  139.4191  159.4720 C.3     1  UNL1        0.0746
      7 N         141.8435  138.2986  159.0913 N.3     1  UNL1       -0.2722
      8 C         142.7855  137.7240  160.1074 C.3     1  UNL1        0.0746
      9 C         142.8058  138.2700  161.5043 C.3     1  UNL1        0.0463
     10 C         140.9625  140.5111  162.2659 C.3     1  UNL1        0.1254
     11 N         140.9828  141.0571  163.6629 N.am    1  UNL1       -0.2522
     12 C         141.9247  140.4825  164.6790 C.2     1  UNL1        0.2566
     13 O         141.9451  141.0285  166.0760 O.2     1  UNL1       -0.2719
     14 C         140.0612  142.1776  164.0436 C.ar    1  UNL1        0.0815
     15 C         138.5882  141.9258  164.1740 C.ar    1  UNL1        0.0172
     16 C         137.6666  143.0464  164.5547 C.ar    1  UNL1        0.0014
     17 C         138.2179  144.4187  164.8052 C.ar    1  UNL1        0.0024
     18 C         139.6909  144.6705  164.6748 C.ar    1  UNL1        0.0309
     19 C         140.6125  143.5500  164.2941 C.ar    1  UNL1        0.1537
     20 F         142.0854  143.8018  164.1638 F       1  UNL1       -0.2029
     21 C         141.8232  137.7526  157.6942 C.3     1  UNL1        0.0768
     22 C         142.9430  136.8774  157.2147 C.3     1  UNL1        0.0437
     23 C         142.6532  135.4893  156.7253 C.ar    1  UNL1       -0.0208
     24 C         143.3525  134.3150  157.3432 C.ar    1  UNL1       -0.0042
     25 C         143.0627  132.9270  156.8538 C.ar    1  UNL1       -0.0003
     26 C         142.0737  132.7134  155.7465 C.ar    1  UNL1       -0.0000
     27 C         141.3744  133.8878  155.1286 C.ar    1  UNL1       -0.0003
     28 C         141.6642  135.2757  155.6180 C.ar    1  UNL1       -0.0042
@<TRIPOS>BOND
     1     1     2    1
     2     2     3    1
     3     3     4    1
     4     4     5    1
     5     5     6    1
     6     6     7    1
     7     7    21    1
     8    21    22    1
     9    22    23    1
    10    23    24   ar
    11    24    25   ar
    12    25    26   ar
    13    26    27   ar
    14    27    28   ar
    15     7     8    1
    16     8     9    1
    17     4    10    1
    18    10    11    1
    19    11    14    1
    20    14    15   ar
    21    15    16   ar
    22    16    17   ar
    23    17    18   ar
    24    18    19   ar
    25    19    20    1
    26    11    12   am
    27    12    13    2
    28    12     2    1
    29     9     4    1
    30    19    14   ar
    31    28    23   ar
