@<TRIPOS>MOLECULE
*****
 32 35 0 0 0
SMALL
GASTEIGER

@<TRIPOS>ATOM
      1 C         139.5741  141.1914  163.9530 C.2     1  UNL1        0.2528
      2 O         140.5059  142.3645  164.0268 O.2     1  UNL1       -0.2696
      3 N         138.9401  140.8183  162.6458 N.am    1  UNL1       -0.2486
      4 C         138.0083  139.6451  162.5720 C.3     1  UNL1        0.1458
      5 C         137.3743  139.2720  161.2648 C.3     1  UNL1        0.2272
      6 O         137.6720  140.0720  160.0314 O.3     1  UNL1       -0.4723
      7 C         138.6038  141.2451  160.1052 C.ar    1  UNL1        0.1537
      8 C         138.9016  142.0452  158.8717 C.ar    1  UNL1        0.0574
      9 C         139.8334  143.2183  158.9456 C.ar    1  UNL1        0.0888
     10 N         140.1312  144.0184  157.7121 N.ar    1  UNL1       -0.2238
     11 C         141.0630  145.1915  157.7859 C.ar    1  UNL1        0.2000
     12 N         141.6970  145.5647  159.0931 N.ar    1  UNL1       -0.2089
     13 C         141.3993  144.7647  160.3265 C.ar    1  UNL1        0.1353
     14 C         140.4674  143.5915  160.2528 C.ar    1  UNL1        0.0509
     15 C         140.1697  142.7915  161.4862 C.ar    1  UNL1        0.0223
     16 C         139.2378  141.6183  161.4124 C.ar    1  UNL1        0.0885
     17 C         139.8641  140.7992  166.5048 C.2     1  UNL1       -0.0041
     18 C         139.2764  140.3914  165.1864 C.2     1  UNL1        0.0551
     19 C         139.5662  139.9991  167.7383 C.3     1  UNL1        0.0991
     20 C         141.9894  139.7870  168.6510 C.3     1  UNL1        0.0899
     21 N         140.5261  140.0127  168.8909 N.3     1  UNL1       -0.2665
     22 C         140.0224  140.2519  170.2835 C.3     1  UNL1        0.0899
     23 N         142.0333  145.1378  161.6337 N.pl3   1  UNL1       -0.2978
     24 H         141.7696  145.9699  162.0890 H       1  UNL1        0.1536
     25 C         143.0691  144.2431  162.2473 C.ar    1  UNL1        0.0504
     26 C         143.8026  143.2504  161.3950 C.ar    1  UNL1        0.0170
     27 C         144.8384  142.3557  162.0087 C.ar    1  UNL1        0.0318
     28 C         145.1408  142.4537  163.4747 C.ar    1  UNL1        0.1507
     29 F         146.1766  141.5590  164.0883 F       1  UNL1       -0.2033
     30 C         144.4072  143.4464  164.3270 C.ar    1  UNL1        0.0863
     31 CL        144.7095  143.5444  165.7929 Cl      1  UNL1       -0.0799
     32 C         143.3714  144.3411  163.7133 C.ar    1  UNL1        0.0283
@<TRIPOS>BOND
     1    20    21    1
     2    21    22    1
     3    21    19    1
     4    19    17    1
     5    17    18    2
     6    18     1    1
     7     1     2    2
     8     1     3   am
     9     3     4    1
    10     4     5    1
    11     5     6    1
    12     6     7    1
    13     7     8   ar
    14     8     9   ar
    15     9    10   ar
    16    10    11   ar
    17    11    12   ar
    18    12    13   ar
    19    13    23    1
    20    23    25    1
    21    25    26   ar
    22    26    27   ar
    23    27    28   ar
    24    28    29    1
    25    28    30   ar
    26    30    31    1
    27    30    32   ar
    28    13    14   ar
    29    14    15   ar
    30    15    16   ar
    31    16     3    1
    32    16     7   ar
    33    14     9   ar
    34    32    25   ar
    35    23    24    1
@<TRIPOS>MOLECULE
*****
 32 35 0 0 0
SMALL
GASTEIGER

@<TRIPOS>ATOM
      1 C         143.3355  141.5981  165.2655 C.2     1  UNL1        0.2528
      2 O         143.2220  140.1442  164.9144 O.2     1  UNL1       -0.2696
      3 N         143.4554  142.6250  164.1788 N.am    1  UNL1       -0.2486
      4 C         143.5688  144.0789  164.5299 C.3     1  UNL1        0.1458
      5 C         143.6888  145.1058  163.4432 C.3     1  UNL1        0.2272
      6 O         143.6952  144.6789  162.0053 O.3     1  UNL1       -0.4723
      7 C         143.5818  143.2250  161.6541 C.ar    1  UNL1        0.1537
      8 C         143.5882  142.7980  160.2161 C.ar    1  UNL1        0.0574
      9 C         143.4748  141.3441  159.8650 C.ar    1  UNL1        0.0888
     10 N         143.4812  140.9171  158.4270 N.ar    1  UNL1       -0.2238
     11 C         143.3677  139.4633  158.0758 C.ar    1  UNL1        0.2000
     12 N         143.2478  138.4363  159.1626 N.ar    1  UNL1       -0.2089
     13 C         143.2414  138.8633  160.6005 C.ar    1  UNL1        0.1353
     14 C         143.3548  140.3172  160.9517 C.ar    1  UNL1        0.0509
     15 C         143.3484  140.7441  162.3896 C.ar    1  UNL1        0.0223
     16 C         143.4618  142.1981  162.7409 C.ar    1  UNL1        0.0885
     17 C         142.0502  142.0016  167.4870 C.2     1  UNL1       -0.0041
     18 C         143.3290  142.0250  166.7034 C.2     1  UNL1        0.0551
     19 C         142.0438  142.4286  168.9250 C.3     1  UNL1        0.0991
     20 C         140.3634  144.1237  169.9510 C.3     1  UNL1        0.0899
     21 N         140.7436  142.7116  169.6175 N.3     1  UNL1       -0.2665
     22 C         139.8237  141.5824  169.9765 C.3     1  UNL1        0.0899
     23 N         143.1215  137.8363  161.6873 N.pl3   1  UNL1       -0.2978
     24 H         143.8653  137.2155  161.8621 H       1  UNL1        0.1536
     25 C         141.8683  137.7553  162.5076 C.ar    1  UNL1        0.0504
     26 C         141.9507  137.4578  163.9755 C.ar    1  UNL1        0.0170
     27 C         140.6976  137.3768  164.7959 C.ar    1  UNL1        0.0318
     28 C         139.3620  137.5933  164.1483 C.ar    1  UNL1        0.1507
     29 F         138.1088  137.5123  164.9687 F       1  UNL1       -0.2033
     30 C         139.2795  137.8908  162.6805 C.ar    1  UNL1        0.0863
     31 CL        137.9440  138.1074  162.0329 Cl      1  UNL1       -0.0799
     32 C         140.5328  137.9718  161.8601 C.ar    1  UNL1        0.0283
@<TRIPOS>BOND
     1    20    21    1
     2    21    22    1
     3    21    19    1
     4    19    17    1
     5    17    18    2
     6    18     1    1
     7     1     2    2
     8     1     3   am
     9     3     4    1
    10     4     5    1
    11     5     6    1
    12     6     7    1
    13     7     8   ar
    14     8     9   ar
    15     9    10   ar
    16    10    11   ar
    17    11    12   ar
    18    12    13   ar
    19    13    23    1
    20    23    25    1
    21    25    26   ar
    22    26    27   ar
    23    27    28   ar
    24    28    29    1
    25    28    30   ar
    26    30    31    1
    27    30    32   ar
    28    13    14   ar
    29    14    15   ar
    30    15    16   ar
    31    16     3    1
    32    16     7   ar
    33    14     9   ar
    34    32    25   ar
    35    23    24    1
@<TRIPOS>MOLECULE
*****
 32 35 0 0 0
SMALL
GASTEIGER

@<TRIPOS>ATOM
      1 C         139.6002  141.2659  165.6353 C.2     1  UNL1        0.2528
      2 O         139.6001  142.5429  164.8483 O.2     1  UNL1       -0.2696
      3 N         139.2251  139.9749  164.9700 N.am    1  UNL1       -0.2486
      4 C         139.2252  138.6980  165.7570 C.3     1  UNL1        0.1458
      5 C         138.8501  137.4069  165.0918 C.3     1  UNL1        0.2272
      6 O         138.4751  137.3928  163.6395 O.3     1  UNL1       -0.4723
      7 C         138.4750  138.6697  162.8525 C.ar    1  UNL1        0.1537
      8 C         138.1000  138.6557  161.4002 C.ar    1  UNL1        0.0574
      9 C         138.0999  139.9326  160.6132 C.ar    1  UNL1        0.0888
     10 N         137.7248  139.9185  159.1609 N.ar    1  UNL1       -0.2238
     11 C         137.7248  141.1954  158.3739 C.ar    1  UNL1        0.2000
     12 N         138.0998  142.4865  159.0391 N.ar    1  UNL1       -0.2089
     13 C         138.4749  142.5006  160.4914 C.ar    1  UNL1        0.1353
     14 C         138.4750  141.2236  161.2785 C.ar    1  UNL1        0.0509
     15 C         138.8500  141.2378  162.7307 C.ar    1  UNL1        0.0223
     16 C         138.8501  139.9608  163.5178 C.ar    1  UNL1        0.0885
     17 C         140.5608  142.5183  167.6989 C.2     1  UNL1       -0.0041
     18 C         139.9752  141.2801  167.0875 C.2     1  UNL1        0.0551
     19 C         140.9359  142.5324  169.1513 C.3     1  UNL1        0.0991
     20 C         140.5929  140.4087  170.6080 C.3     1  UNL1        0.0899
     21 N         141.4887  141.2955  169.7951 N.3     1  UNL1       -0.2665
     22 C         142.9375  140.9455  169.6259 C.3     1  UNL1        0.0899
     23 N         138.8499  143.7916  161.1566 N.pl3   1  UNL1       -0.2978
     24 H         138.1693  144.4889  161.2971 H       1  UNL1        0.1536
     25 C         140.2620  144.0203  161.6078 C.ar    1  UNL1        0.0504
     26 C         140.5412  144.9332  162.7649 C.ar    1  UNL1        0.0170
     27 C         141.9533  145.1618  163.2161 C.ar    1  UNL1        0.0318
     28 C         143.0863  144.4777  162.5103 C.ar    1  UNL1        0.1507
     29 F         144.4984  144.7064  162.9615 F       1  UNL1       -0.2033
     30 C         142.8072  143.5649  161.3532 C.ar    1  UNL1        0.0863
     31 CL        143.9402  142.8807  160.6474 Cl      1  UNL1       -0.0799
     32 C         141.3950  143.3362  160.9020 C.ar    1  UNL1        0.0283
@<TRIPOS>BOND
     1    20    21    1
     2    21    22    1
     3    21    19    1
     4    19    17    1
     5    17    18    2
     6    18     1    1
     7     1     2    2
     8     1     3   am
     9     3     4    1
    10     4     5    1
    11     5     6    1
    12     6     7    1
    13     7     8   ar
    14     8     9   ar
    15     9    10   ar
    16    10    11   ar
    17    11    12   ar
    18    12    13   ar
    19    13    23    1
    20    23    25    1
    21    25    26   ar
    22    26    27   ar
    23    27    28   ar
    24    28    29    1
    25    28    30   ar
    26    30    31    1
    27    30    32   ar
    28    13    14   ar
    29    14    15   ar
    30    15    16   ar
    31    16     3    1
    32    16     7   ar
    33    14     9   ar
    34    32    25   ar
    35    23    24    1
@<TRIPOS>MOLECULE
*****
 32 35 0 0 0
SMALL
GASTEIGER

@<TRIPOS>ATOM
      1 C         143.2568  140.4040  163.8508 C.2     1  UNL1        0.2528
      2 O         142.9198  141.8571  164.0091 O.2     1  UNL1       -0.2696
      3 N         143.3735  139.8061  162.4801 N.am    1  UNL1       -0.2486
      4 C         143.7105  138.3531  162.3218 C.3     1  UNL1        0.1458
      5 C         143.8272  137.7552  160.9511 C.3     1  UNL1        0.2272
      6 O         143.6069  138.6104  159.7386 O.3     1  UNL1       -0.4723
      7 C         143.2699  140.0634  159.8969 C.ar    1  UNL1        0.1537
      8 C         143.0495  140.9186  158.6843 C.ar    1  UNL1        0.0574
      9 C         142.7125  142.3717  158.8426 C.ar    1  UNL1        0.0888
     10 N         142.4921  143.2269  157.6301 N.ar    1  UNL1       -0.2238
     11 C         142.1551  144.6799  157.7884 C.ar    1  UNL1        0.2000
     12 N         142.0384  145.2778  159.1591 N.ar    1  UNL1       -0.2089
     13 C         142.2588  144.4226  160.3716 C.ar    1  UNL1        0.1353
     14 C         142.5958  142.9695  160.2133 C.ar    1  UNL1        0.0509
     15 C         142.8161  142.1144  161.4258 C.ar    1  UNL1        0.0223
     16 C         143.1532  140.6613  161.2676 C.ar    1  UNL1        0.0885
     17 C         142.7649  139.8665  166.3446 C.2     1  UNL1       -0.0041
     18 C         143.4772  139.5489  165.0633 C.2     1  UNL1        0.0551
     19 C         142.9852  139.0113  167.5571 C.3     1  UNL1        0.0991
     20 C         142.9554  141.0847  169.1224 C.3     1  UNL1        0.0899
     21 N         142.8387  139.6019  168.9281 N.3     1  UNL1       -0.2665
     22 C         142.5754  138.7097  170.1049 C.3     1  UNL1        0.0899
     23 N         142.1421  145.0205  161.7423 N.pl3   1  UNL1       -0.2978
     24 H         142.8794  145.5608  162.1081 H       1  UNL1        0.1536
     25 C         140.9021  144.7953  162.5557 C.ar    1  UNL1        0.0504
     26 C         139.5516  145.0142  161.9407 C.ar    1  UNL1        0.0170
     27 C         138.3117  144.7889  162.7541 C.ar    1  UNL1        0.0318
     28 C         138.4221  144.3448  164.1826 C.ar    1  UNL1        0.1507
     29 F         137.1822  144.1196  164.9961 F       1  UNL1       -0.2033
     30 C         139.7726  144.1259  164.7977 C.ar    1  UNL1        0.0863
     31 CL        139.8831  143.6818  166.2261 Cl      1  UNL1       -0.0799
     32 C         141.0126  144.3512  163.9842 C.ar    1  UNL1        0.0283
@<TRIPOS>BOND
     1    20    21    1
     2    21    22    1
     3    21    19    1
     4    19    17    1
     5    17    18    2
     6    18     1    1
     7     1     2    2
     8     1     3   am
     9     3     4    1
    10     4     5    1
    11     5     6    1
    12     6     7    1
    13     7     8   ar
    14     8     9   ar
    15     9    10   ar
    16    10    11   ar
    17    11    12   ar
    18    12    13   ar
    19    13    23    1
    20    23    25    1
    21    25    26   ar
    22    26    27   ar
    23    27    28   ar
    24    28    29    1
    25    28    30   ar
    26    30    31    1
    27    30    32   ar
    28    13    14   ar
    29    14    15   ar
    30    15    16   ar
    31    16     3    1
    32    16     7   ar
    33    14     9   ar
    34    32    25   ar
    35    23    24    1
@<TRIPOS>MOLECULE
*****
 32 35 0 0 0
SMALL
GASTEIGER

@<TRIPOS>ATOM
      1 C         141.9035  139.7736  166.3040 C.2     1  UNL1        0.2528
      2 O         143.1748  140.2020  165.6331 O.2     1  UNL1       -0.2696
      3 N         140.8250  139.1009  165.5075 N.am    1  UNL1       -0.2486
      4 C         139.5536  138.6725  166.1784 C.3     1  UNL1        0.1458
      5 C         138.4751  137.9999  165.3820 C.3     1  UNL1        0.2272
      6 O         138.6679  137.7556  163.9147 O.3     1  UNL1       -0.4723
      7 C         139.9392  138.1841  163.2438 C.ar    1  UNL1        0.1537
      8 C         140.1321  137.9398  161.7763 C.ar    1  UNL1        0.0574
      9 C         141.4034  138.3683  161.1054 C.ar    1  UNL1        0.0888
     10 N         141.5962  138.1241  159.6380 N.ar    1  UNL1       -0.2238
     11 C         142.8675  138.5525  158.9671 C.ar    1  UNL1        0.2000
     12 N         143.9461  139.2252  159.7636 N.ar    1  UNL1       -0.2089
     13 C         143.7533  139.4694  161.2309 C.ar    1  UNL1        0.1353
     14 C         142.4819  139.0409  161.9019 C.ar    1  UNL1        0.0509
     15 C         142.2891  139.2852  163.3692 C.ar    1  UNL1        0.0223
     16 C         141.0177  138.8567  164.0402 C.ar    1  UNL1        0.0885
     17 C         142.6309  139.3745  168.7660 C.2     1  UNL1       -0.0041
     18 C         141.7107  140.0178  167.7713 C.2     1  UNL1        0.0551
     19 C         142.4381  139.6188  170.2334 C.3     1  UNL1        0.0991
     20 C         141.6723  141.9647  171.0461 C.3     1  UNL1        0.0899
     21 N         141.3517  140.5399  170.7040 N.3     1  UNL1       -0.2665
     22 C         139.9446  140.0361  170.8324 C.3     1  UNL1        0.0899
     23 N         144.8318  140.1420  162.0273 N.pl3   1  UNL1       -0.2978
     24 H         145.7053  139.7027  162.1426 H       1  UNL1        0.1536
     25 C         144.5795  141.4840  162.6481 C.ar    1  UNL1        0.0504
     26 C         145.3159  141.8855  163.8917 C.ar    1  UNL1        0.0170
     27 C         145.0636  143.2274  164.5125 C.ar    1  UNL1        0.0318
     28 C         144.0749  144.1680  163.8897 C.ar    1  UNL1        0.1507
     29 F         143.8226  145.5100  164.5105 F       1  UNL1       -0.2033
     30 C         143.3385  143.7665  162.6461 C.ar    1  UNL1        0.0863
     31 CL        142.3498  144.7070  162.0233 Cl      1  UNL1       -0.0799
     32 C         143.5908  142.4245  162.0253 C.ar    1  UNL1        0.0283
@<TRIPOS>BOND
     1    20    21    1
     2    21    22    1
     3    21    19    1
     4    19    17    1
     5    17    18    2
     6    18     1    1
     7     1     2    2
     8     1     3   am
     9     3     4    1
    10     4     5    1
    11     5     6    1
    12     6     7    1
    13     7     8   ar
    14     8     9   ar
    15     9    10   ar
    16    10    11   ar
    17    11    12   ar
    18    12    13   ar
    19    13    23    1
    20    23    25    1
    21    25    26   ar
    22    26    27   ar
    23    27    28   ar
    24    28    29    1
    25    28    30   ar
    26    30    31    1
    27    30    32   ar
    28    13    14   ar
    29    14    15   ar
    30    15    16   ar
    31    16     3    1
    32    16     7   ar
    33    14     9   ar
    34    32    25   ar
    35    23    24    1
@<TRIPOS>MOLECULE
*****
 32 35 0 0 0
SMALL
GASTEIGER

@<TRIPOS>ATOM
      1 C         139.4145  142.7356  164.3705 C.2     1  UNL1        0.2528
      2 O         138.6933  141.4664  164.0257 O.2     1  UNL1       -0.2696
      3 N         139.8556  143.6673  163.2808 N.am    1  UNL1       -0.2486
      4 C         140.5769  144.9365  163.6255 C.3     1  UNL1        0.1458
      5 C         141.0180  145.8682  162.5358 C.3     1  UNL1        0.2272
      6 O         140.7379  145.5306  161.1014 O.3     1  UNL1       -0.4723
      7 C         140.0167  144.2614  160.7567 C.ar    1  UNL1        0.1537
      8 C         139.7365  143.9238  159.3222 C.ar    1  UNL1        0.0574
      9 C         139.0153  142.6546  158.9775 C.ar    1  UNL1        0.0888
     10 N         138.7352  142.3170  157.5430 N.ar    1  UNL1       -0.2238
     11 C         138.0140  141.0478  157.1983 C.ar    1  UNL1        0.2000
     12 N         137.5728  140.1161  158.2880 N.ar    1  UNL1       -0.2089
     13 C         137.8529  140.4536  159.7224 C.ar    1  UNL1        0.1353
     14 C         138.5742  141.7229  160.0672 C.ar    1  UNL1        0.0509
     15 C         138.8543  142.0605  161.5016 C.ar    1  UNL1        0.0223
     16 C         139.5755  143.3297  161.8464 C.ar    1  UNL1        0.0885
     17 C         140.6047  142.2000  166.6169 C.2     1  UNL1       -0.0041
     18 C         139.6946  143.0731  165.8049 C.2     1  UNL1        0.0551
     19 C         140.8848  142.5376  168.0514 C.3     1  UNL1        0.0991
     20 C         139.8621  142.5679  170.4395 C.3     1  UNL1        0.0899
     21 N         140.1201  141.8539  169.1459 N.3     1  UNL1       -0.2665
     22 C         139.6135  140.4561  168.9466 C.3     1  UNL1        0.0899
     23 N         137.4118  139.5220  160.8121 N.pl3   1  UNL1       -0.2978
     24 H         136.4522  139.3788  160.9788 H       1  UNL1        0.1536
     25 C         138.4328  138.8084  161.6477 C.ar    1  UNL1        0.0504
     26 C         139.7696  138.4599  161.0631 C.ar    1  UNL1        0.0170
     27 C         140.7906  137.7463  161.8987 C.ar    1  UNL1        0.0318
     28 C         140.4748  137.3811  163.3189 C.ar    1  UNL1        0.1507
     29 F         141.4958  136.6675  164.1545 F       1  UNL1       -0.2033
     30 C         139.1381  137.7295  163.9035 C.ar    1  UNL1        0.0863
     31 CL        138.8224  137.3644  165.3237 Cl      1  UNL1       -0.0799
     32 C         138.1171  138.4432  163.0678 C.ar    1  UNL1        0.0283
@<TRIPOS>BOND
     1    20    21    1
     2    21    22    1
     3    21    19    1
     4    19    17    1
     5    17    18    2
     6    18     1    1
     7     1     2    2
     8     1     3   am
     9     3     4    1
    10     4     5    1
    11     5     6    1
    12     6     7    1
    13     7     8   ar
    14     8     9   ar
    15     9    10   ar
    16    10    11   ar
    17    11    12   ar
    18    12    13   ar
    19    13    23    1
    20    23    25    1
    21    25    26   ar
    22    26    27   ar
    23    27    28   ar
    24    28    29    1
    25    28    30   ar
    26    30    31    1
    27    30    32   ar
    28    13    14   ar
    29    14    15   ar
    30    15    16   ar
    31    16     3    1
    32    16     7   ar
    33    14     9   ar
    34    32    25   ar
    35    23    24    1
@<TRIPOS>MOLECULE
*****
 32 35 0 0 0
SMALL
GASTEIGER

@<TRIPOS>ATOM
      1 C         140.5367  141.1703  166.5388 C.2     1  UNL1        0.2528
      2 O         139.4451  141.7268  165.6735 O.2     1  UNL1       -0.2696
      3 N         141.4178  140.0723  166.0212 N.am    1  UNL1       -0.2486
      4 C         142.5094  139.5158  166.8865 C.3     1  UNL1        0.1458
      5 C         143.3906  138.4178  166.3689 C.3     1  UNL1        0.2272
      6 O         143.1801  137.8762  164.9860 O.3     1  UNL1       -0.4723
      7 C         142.0885  138.4326  164.1208 C.ar    1  UNL1        0.1537
      8 C         141.8781  137.8911  162.7378 C.ar    1  UNL1        0.0574
      9 C         140.7865  138.4475  161.8725 C.ar    1  UNL1        0.0888
     10 N         140.5760  137.9059  160.4896 N.ar    1  UNL1       -0.2238
     11 C         139.4844  138.4624  159.6243 C.ar    1  UNL1        0.2000
     12 N         138.6033  139.5604  160.1419 N.ar    1  UNL1       -0.2089
     13 C         138.8137  140.1020  161.5247 C.ar    1  UNL1        0.1353
     14 C         139.9053  139.5456  162.3901 C.ar    1  UNL1        0.0509
     15 C         140.1158  140.0871  163.7730 C.ar    1  UNL1        0.0223
     16 C         141.2074  139.5307  164.6383 C.ar    1  UNL1        0.0885
     17 C         140.3256  143.1134  168.2504 C.2     1  UNL1       -0.0041
     18 C         140.7471  141.7119  167.9216 C.2     1  UNL1        0.0551
     19 C         140.5360  143.6550  169.6334 C.3     1  UNL1        0.0991
     20 C         140.8423  141.8524  171.4791 C.3     1  UNL1        0.0899
     21 N         141.4188  142.9220  170.5996 N.3     1  UNL1       -0.2665
     22 C         142.8780  143.2586  170.6862 C.3     1  UNL1        0.0899
     23 N         137.9326  141.2000  162.0423 N.pl3   1  UNL1       -0.2978
     24 H         137.0295  140.9913  162.3743 H       1  UNL1        0.1536
     25 C         138.4272  142.6161  162.0540 C.ar    1  UNL1        0.0504
     26 C         137.9136  143.5815  163.0807 C.ar    1  UNL1        0.0170
     27 C         138.4083  144.9975  163.0924 C.ar    1  UNL1        0.0318
     28 C         139.4166  145.4481  162.0774 C.ar    1  UNL1        0.1507
     29 F         139.9113  146.8641  162.0891 F       1  UNL1       -0.2033
     30 C         139.9303  144.4827  161.0507 C.ar    1  UNL1        0.0863
     31 CL        140.9386  144.9333  160.0357 Cl      1  UNL1       -0.0799
     32 C         139.4355  143.0666  161.0390 C.ar    1  UNL1        0.0283
@<TRIPOS>BOND
     1    20    21    1
     2    21    22    1
     3    21    19    1
     4    19    17    1
     5    17    18    2
     6    18     1    1
     7     1     2    2
     8     1     3   am
     9     3     4    1
    10     4     5    1
    11     5     6    1
    12     6     7    1
    13     7     8   ar
    14     8     9   ar
    15     9    10   ar
    16    10    11   ar
    17    11    12   ar
    18    12    13   ar
    19    13    23    1
    20    23    25    1
    21    25    26   ar
    22    26    27   ar
    23    27    28   ar
    24    28    29    1
    25    28    30   ar
    26    30    31    1
    27    30    32   ar
    28    13    14   ar
    29    14    15   ar
    30    15    16   ar
    31    16     3    1
    32    16     7   ar
    33    14     9   ar
    34    32    25   ar
    35    23    24    1
@<TRIPOS>MOLECULE
*****
 32 35 0 0 0
SMALL
GASTEIGER

@<TRIPOS>ATOM
      1 C         141.1772  140.0116  158.0331 C.2     1  UNL1        0.2528
      2 O         140.0139  139.5867  158.8793 O.2     1  UNL1       -0.2696
      3 N         141.7372  141.3965  158.1688 N.am    1  UNL1       -0.2486
      4 C         142.9005  141.8214  157.3226 C.3     1  UNL1        0.1458
      5 C         143.4605  143.2063  157.4584 C.3     1  UNL1        0.2272
      6 O         142.8572  144.1663  158.4404 O.3     1  UNL1       -0.4723
      7 C         141.6938  143.7415  159.2866 C.ar    1  UNL1        0.1537
      8 C         141.0904  144.7015  160.2686 C.ar    1  UNL1        0.0574
      9 C         139.9271  144.2766  161.1148 C.ar    1  UNL1        0.0888
     10 N         139.3237  145.2366  162.0968 N.ar    1  UNL1       -0.2238
     11 C         138.1604  144.8117  162.9430 C.ar    1  UNL1        0.2000
     12 N         137.6004  143.4268  162.8073 N.ar    1  UNL1       -0.2089
     13 C         138.2037  142.4668  161.8253 C.ar    1  UNL1        0.1353
     14 C         139.3671  142.8917  160.9790 C.ar    1  UNL1        0.0509
     15 C         139.9705  141.9317  159.9971 C.ar    1  UNL1        0.0223
     16 C         141.1339  142.3565  159.1508 C.ar    1  UNL1        0.0885
     17 C         142.5891  137.8869  157.5409 C.2     1  UNL1       -0.0041
     18 C         141.7805  139.0516  157.0511 C.2     1  UNL1        0.0551
     19 C         143.1924  136.9269  156.5588 C.3     1  UNL1        0.0991
     20 C         143.3400  134.4267  157.2496 C.3     1  UNL1        0.0899
     21 N         142.6753  135.5217  156.4692 N.3     1  UNL1       -0.2665
     22 C         141.4934  135.2116  155.5991 C.3     1  UNL1        0.0899
     23 N         137.6437  141.0819  161.6895 N.pl3   1  UNL1       -0.2978
     24 H         136.9959  140.8806  160.9760 H       1  UNL1        0.1536
     25 C         138.0708  140.0037  162.6408 C.ar    1  UNL1        0.0504
     26 C         138.5154  138.6715  162.1139 C.ar    1  UNL1        0.0170
     27 C         138.9424  137.5933  163.0652 C.ar    1  UNL1        0.0318
     28 C         138.9248  137.8471  164.5435 C.ar    1  UNL1        0.1507
     29 F         139.3518  136.7689  165.4948 F       1  UNL1       -0.2033
     30 C         138.4801  139.1793  165.0704 C.ar    1  UNL1        0.0863
     31 CL        138.4624  139.4332  166.5486 Cl      1  UNL1       -0.0799
     32 C         138.0531  140.2576  164.1190 C.ar    1  UNL1        0.0283
@<TRIPOS>BOND
     1    20    21    1
     2    21    22    1
     3    21    19    1
     4    19    17    1
     5    17    18    2
     6    18     1    1
     7     1     2    2
     8     1     3   am
     9     3     4    1
    10     4     5    1
    11     5     6    1
    12     6     7    1
    13     7     8   ar
    14     8     9   ar
    15     9    10   ar
    16    10    11   ar
    17    11    12   ar
    18    12    13   ar
    19    13    23    1
    20    23    25    1
    21    25    26   ar
    22    26    27   ar
    23    27    28   ar
    24    28    29    1
    25    28    30   ar
    26    30    31    1
    27    30    32   ar
    28    13    14   ar
    29    14    15   ar
    30    15    16   ar
    31    16     3    1
    32    16     7   ar
    33    14     9   ar
    34    32    25   ar
    35    23    24    1
@<TRIPOS>MOLECULE
*****
 32 35 0 0 0
SMALL
GASTEIGER

@<TRIPOS>ATOM
      1 C         142.0551  142.2109  165.2269 C.2     1  UNL1        0.2528
      2 O         143.0964  141.7936  164.2311 O.2     1  UNL1       -0.2696
      3 N         140.9807  143.1786  164.8277 N.am    1  UNL1       -0.2486
      4 C         139.9394  143.5958  165.8235 C.3     1  UNL1        0.1458
      5 C         138.8651  144.5635  165.4243 C.3     1  UNL1        0.2272
      6 O         138.8320  145.1139  164.0294 O.3     1  UNL1       -0.4723
      7 C         139.8733  144.6967  163.0336 C.ar    1  UNL1        0.1537
      8 C         139.8402  145.2471  161.6386 C.ar    1  UNL1        0.0574
      9 C         140.8815  144.8299  160.6428 C.ar    1  UNL1        0.0888
     10 N         140.8485  145.3803  159.2478 N.ar    1  UNL1       -0.2238
     11 C         141.8897  144.9630  158.2520 C.ar    1  UNL1        0.2000
     12 N         142.9641  143.9954  158.6512 N.ar    1  UNL1       -0.2089
     13 C         142.9972  143.4449  160.0461 C.ar    1  UNL1        0.1353
     14 C         141.9559  143.8622  161.0420 C.ar    1  UNL1        0.0509
     15 C         141.9890  143.3118  162.4369 C.ar    1  UNL1        0.0223
     16 C         140.9476  143.7290  163.4328 C.ar    1  UNL1        0.0885
     17 C         142.9850  142.2808  167.6518 C.2     1  UNL1       -0.0041
     18 C         142.0882  141.6605  166.6218 C.2     1  UNL1        0.0551
     19 C         143.0181  141.7303  169.0468 C.3     1  UNL1        0.0991
     20 C         141.2141  143.4052  169.8775 C.3     1  UNL1        0.0899
     21 N         141.9451  142.1039  170.0261 N.3     1  UNL1       -0.2665
     22 C         141.6030  141.1761  171.1541 C.3     1  UNL1        0.0899
     23 N         144.0716  142.4773  160.4453 N.pl3   1  UNL1       -0.2978
     24 H         144.9370  142.8111  160.7751 H       1  UNL1        0.1536
     25 C         143.8273  141.0009  160.3420 C.ar    1  UNL1        0.0504
     26 C         144.1938  140.0985  161.4828 C.ar    1  UNL1        0.0170
     27 C         143.9495  138.6221  161.3795 C.ar    1  UNL1        0.0318
     28 C         143.3389  138.0482  160.1354 C.ar    1  UNL1        0.1507
     29 F         143.0946  136.5718  160.0321 F       1  UNL1       -0.2033
     30 C         142.9724  138.9506  158.9946 C.ar    1  UNL1        0.0863
     31 CL        142.3618  138.3767  157.7506 Cl      1  UNL1       -0.0799
     32 C         143.2167  140.4270  159.0980 C.ar    1  UNL1        0.0283
@<TRIPOS>BOND
     1    20    21    1
     2    21    22    1
     3    21    19    1
     4    19    17    1
     5    17    18    2
     6    18     1    1
     7     1     2    2
     8     1     3   am
     9     3     4    1
    10     4     5    1
    11     5     6    1
    12     6     7    1
    13     7     8   ar
    14     8     9   ar
    15     9    10   ar
    16    10    11   ar
    17    11    12   ar
    18    12    13   ar
    19    13    23    1
    20    23    25    1
    21    25    26   ar
    22    26    27   ar
    23    27    28   ar
    24    28    29    1
    25    28    30   ar
    26    30    31    1
    27    30    32   ar
    28    13    14   ar
    29    14    15   ar
    30    15    16   ar
    31    16     3    1
    32    16     7   ar
    33    14     9   ar
    34    32    25   ar
    35    23    24    1
