@<TRIPOS>MOLECULE
*****
 37 41 0 0 0
SMALL
GASTEIGER

@<TRIPOS>ATOM
      1 C         142.3621  138.2875  163.1647 C.ar    1  UNL1        0.0008
      2 C         143.4488  138.2630  162.1310 C.ar    1  UNL1        0.0016
      3 C         143.0974  138.2860  160.6729 C.ar    1  UNL1        0.0188
      4 C         141.6595  138.3334  160.2486 C.ar    1  UNL1        0.0798
      5 C         140.5729  138.3579  161.2823 C.ar    1  UNL1        0.0382
      6 C         139.2547  138.4041  160.5681 C.ar    1  UNL1        0.1216
      7 N         139.5266  138.4082  159.0929 N.ar    1  UNL1       -0.1674
      8 N         141.0128  138.3646  158.8954 N.ar    1  UNL1       -0.2464
      9 C         140.9242  138.3349  162.7403 C.ar    1  UNL1        0.0031
     10 O         140.7119  142.8514  166.3066 O.2     1  UNL1       -0.2620
     11 C         141.4010  141.5193  166.2810 C.2     1  UNL1        0.2865
     12 S         141.5789  140.6417  165.0776 S.3     1  UNL1       -0.0252
     13 C         142.3210  139.4109  165.5070 C.2     1  UNL1        0.0875
     14 C         142.7134  138.2645  164.6229 C.2     1  UNL1        0.0112
     15 C         142.6018  139.5278  166.9758 C.2     1  UNL1        0.2615
     16 O         143.3243  138.5189  167.8184 O.2     1  UNL1       -0.2689
     17 N         142.0332  140.8309  167.4542 N.am    1  UNL1       -0.2160
     18 C         142.0873  141.3537  168.8591 C.3     1  UNL1        0.1187
     19 C         142.9676  142.5218  169.1912 C.3     1  UNL1        0.0402
     20 C         143.0217  143.0446  170.5961 C.3     1  UNL1        0.0704
     21 N         142.1955  142.3992  171.6688 N.3     1  UNL1       -0.2951
     22 C         141.3151  141.2310  171.3367 C.3     1  UNL1        0.1060
     23 C         141.2610  140.7082  169.9318 C.3     1  UNL1        0.1950
     24 F         140.3806  139.5401  169.5996 F       1  UNL1       -0.2340
     25 H         141.5895  143.1254  172.0507 H       1  UNL1        0.1233
     26 C         141.7271  138.3539  157.5764 C.3     1  UNL1        0.1537
     27 C         141.9091  137.0641  156.8325 C.ar    1  UNL1        0.0061
     28 C         143.0157  136.1269  157.2161 C.ar    1  UNL1       -0.0015
     29 C         143.1978  134.8371  156.4723 C.ar    1  UNL1        0.0111
     30 C         142.2733  134.4846  155.3448 C.ar    1  UNL1        0.0576
     31 CL        142.4553  133.1948  154.6009 Cl      1  UNL1       -0.0823
     32 C         141.1668  135.4219  154.9612 C.ar    1  UNL1        0.0150
     33 C         140.9847  136.7116  155.7051 C.ar    1  UNL1        0.0702
     34 C         139.8782  137.6489  155.3216 C.3     1  UNL1        0.4184
     35 F         138.7717  138.5862  154.9381 F       1  UNL1       -0.1659
     36 F         140.8363  138.4338  154.4755 F       1  UNL1       -0.1659
     37 F         138.9200  136.8640  156.1677 F       1  UNL1       -0.1659
@<TRIPOS>BOND
     1    10    11    2
     2    11    12    1
     3    12    13    1
     4    13    14    2
     5    14     1    1
     6     1     2   ar
     7     2     3   ar
     8     3     4   ar
     9     4     5   ar
    10     5     6   ar
    11     6     7   ar
    12     7     8   ar
    13     8    26    1
    14    26    27    1
    15    27    28   ar
    16    28    29   ar
    17    29    30   ar
    18    30    31    1
    19    30    32   ar
    20    32    33   ar
    21    33    34    1
    22    34    35    1
    23    34    36    1
    24    34    37    1
    25     5     9   ar
    26    13    15    1
    27    15    16    2
    28    15    17   am
    29    18    17    1
    30    18    19    1
    31    19    20    1
    32    20    21    1
    33    21    22    1
    34    22    23    1
    35    23    24    1
    36    17    11   am
    37    23    18    1
    38     9     1   ar
    39     8     4   ar
    40    33    27   ar
    41    21    25    1
@<TRIPOS>MOLECULE
*****
 37 41 0 0 0
SMALL
GASTEIGER

@<TRIPOS>ATOM
      1 C         141.0701  139.6341  159.8350 C.ar    1  UNL1        0.0008
      2 C         140.5190  139.0252  161.0902 C.ar    1  UNL1        0.0016
      3 C         139.6650  139.8466  162.0100 C.ar    1  UNL1        0.0188
      4 C         139.3621  141.2769  161.6746 C.ar    1  UNL1        0.0798
      5 C         139.9132  141.8858  160.4194 C.ar    1  UNL1        0.0382
      6 C         139.4483  143.3103  160.3524 C.ar    1  UNL1        0.1216
      7 N         138.6098  143.5819  161.5662 N.ar    1  UNL1       -0.1674
      8 N         138.5566  142.3251  162.3834 N.ar    1  UNL1       -0.2464
      9 C         140.7672  141.0644  159.4996 C.ar    1  UNL1        0.0031
     10 O         138.3651  136.9384  155.4945 O.2     1  UNL1       -0.2620
     11 C         139.6628  137.2202  156.1919 C.2     1  UNL1        0.2865
     12 S         139.8413  138.0781  157.4094 S.3     1  UNL1       -0.0252
     13 C         141.2987  138.0818  157.7642 C.2     1  UNL1        0.0875
     14 C         141.9241  138.8127  158.9152 C.2     1  UNL1        0.0112
     15 C         142.0210  137.2263  156.7660 C.2     1  UNL1        0.2615
     16 O         143.4954  136.9514  156.7435 O.2     1  UNL1       -0.2689
     17 N         141.0100  136.6938  155.7943 N.am    1  UNL1       -0.2160
     18 C         141.2959  135.7930  154.6294 C.3     1  UNL1        0.1187
     19 C         141.1307  136.3032  153.2286 C.3     1  UNL1        0.0402
     20 C         141.4167  135.4024  152.0638 C.3     1  UNL1        0.0704
     21 N         141.8678  133.9915  152.2998 N.3     1  UNL1       -0.2951
     22 C         142.0329  133.4813  153.7007 C.3     1  UNL1        0.1060
     23 C         141.7470  134.3821  154.8656 C.3     1  UNL1        0.1950
     24 F         141.9121  133.8719  156.2664 F       1  UNL1       -0.2340
     25 H         142.7733  133.8913  151.8413 H       1  UNL1        0.1233
     26 C         137.8260  142.1477  163.6814 C.3     1  UNL1        0.1537
     27 C         138.5479  141.6087  164.8807 C.ar    1  UNL1        0.0061
     28 C         138.2181  140.2417  165.4028 C.ar    1  UNL1       -0.0015
     29 C         138.9400  139.7027  166.6021 C.ar    1  UNL1        0.0111
     30 C         139.9917  140.5306  167.2793 C.ar    1  UNL1        0.0576
     31 CL        140.7137  139.9915  168.4786 Cl      1  UNL1       -0.0823
     32 C         140.3216  141.8975  166.7571 C.ar    1  UNL1        0.0150
     33 C         139.5996  142.4365  165.5578 C.ar    1  UNL1        0.0702
     34 C         139.9294  143.8035  165.0356 C.3     1  UNL1        0.4184
     35 F         140.2593  145.1704  164.5134 F       1  UNL1       -0.1659
     36 F         138.8720  144.3961  165.9191 F       1  UNL1       -0.1659
     37 F         140.9869  143.2108  164.1520 F       1  UNL1       -0.1659
@<TRIPOS>BOND
     1    10    11    2
     2    11    12    1
     3    12    13    1
     4    13    14    2
     5    14     1    1
     6     1     2   ar
     7     2     3   ar
     8     3     4   ar
     9     4     5   ar
    10     5     6   ar
    11     6     7   ar
    12     7     8   ar
    13     8    26    1
    14    26    27    1
    15    27    28   ar
    16    28    29   ar
    17    29    30   ar
    18    30    31    1
    19    30    32   ar
    20    32    33   ar
    21    33    34    1
    22    34    35    1
    23    34    36    1
    24    34    37    1
    25     5     9   ar
    26    13    15    1
    27    15    16    2
    28    15    17   am
    29    18    17    1
    30    18    19    1
    31    19    20    1
    32    20    21    1
    33    21    22    1
    34    22    23    1
    35    23    24    1
    36    17    11   am
    37    23    18    1
    38     9     1   ar
    39     8     4   ar
    40    33    27   ar
    41    21    25    1
@<TRIPOS>MOLECULE
*****
 37 41 0 0 0
SMALL
GASTEIGER

@<TRIPOS>ATOM
      1 C         139.0380  140.9138  158.7468 C.ar    1  UNL1        0.0008
      2 C         138.8740  140.8518  160.2365 C.ar    1  UNL1        0.0016
      3 C         139.1061  142.0784  161.0682 C.ar    1  UNL1        0.0188
      4 C         139.5022  143.3668  160.4102 C.ar    1  UNL1        0.0798
      5 C         139.6662  143.4288  158.9205 C.ar    1  UNL1        0.0382
      6 C         140.0618  144.8289  158.5555 C.ar    1  UNL1        0.1216
      7 N         140.1423  145.6323  159.8197 N.ar    1  UNL1       -0.1674
      8 N         139.7965  144.7287  160.9659 N.ar    1  UNL1       -0.2464
      9 C         139.4340  142.2022  158.0888 C.ar    1  UNL1        0.0031
     10 O         143.7383  138.0935  156.9090 O.2     1  UNL1       -0.2620
     11 C         142.2403  138.1663  156.9368 C.2     1  UNL1        0.2865
     12 S         141.4212  139.2131  157.6321 S.3     1  UNL1       -0.0252
     13 C         139.9731  138.8989  157.3993 C.2     1  UNL1        0.0875
     14 C         138.8058  139.6872  157.9151 C.2     1  UNL1        0.0112
     15 C         139.8972  137.6580  156.5601 C.2     1  UNL1        0.2615
     16 O         138.6407  136.9874  156.0893 O.2     1  UNL1       -0.2689
     17 N         141.2984  137.2052  156.2742 N.am    1  UNL1       -0.2160
     18 C         141.6891  136.0025  155.4675 C.3     1  UNL1        0.1187
     19 C         141.2664  135.8924  154.0325 C.3     1  UNL1        0.0402
     20 C         141.6571  134.6897  153.2258 C.3     1  UNL1        0.0704
     21 N         142.4704  133.5971  153.8541 N.3     1  UNL1       -0.2951
     22 C         142.8930  133.7072  155.2891 C.3     1  UNL1        0.1060
     23 C         142.5024  134.9099  156.0958 C.3     1  UNL1        0.1950
     24 F         142.9250  135.0200  157.5308 F       1  UNL1       -0.2340
     25 H         143.3235  133.5102  153.3017 H       1  UNL1        0.1233
     26 C         139.7526  145.1185  162.4137 C.3     1  UNL1        0.1537
     27 C         140.5632  144.3571  163.4203 C.ar    1  UNL1        0.0061
     28 C         142.0190  144.0971  163.1689 C.ar    1  UNL1       -0.0015
     29 C         142.8296  143.3357  164.1754 C.ar    1  UNL1        0.0111
     30 C         142.1845  142.8342  165.4334 C.ar    1  UNL1        0.0576
     31 CL        142.9951  142.0728  166.4400 Cl      1  UNL1       -0.0823
     32 C         140.7287  143.0942  165.6847 C.ar    1  UNL1        0.0150
     33 C         139.9181  143.8556  164.6782 C.ar    1  UNL1        0.0702
     34 C         138.4624  144.1156  164.9295 C.3     1  UNL1        0.4184
     35 F         137.0066  144.3756  165.1809 F       1  UNL1       -0.1659
     36 F         138.8113  145.3996  165.6221 F       1  UNL1       -0.1659
     37 F         138.1135  142.8316  164.2369 F       1  UNL1       -0.1659
@<TRIPOS>BOND
     1    10    11    2
     2    11    12    1
     3    12    13    1
     4    13    14    2
     5    14     1    1
     6     1     2   ar
     7     2     3   ar
     8     3     4   ar
     9     4     5   ar
    10     5     6   ar
    11     6     7   ar
    12     7     8   ar
    13     8    26    1
    14    26    27    1
    15    27    28   ar
    16    28    29   ar
    17    29    30   ar
    18    30    31    1
    19    30    32   ar
    20    32    33   ar
    21    33    34    1
    22    34    35    1
    23    34    36    1
    24    34    37    1
    25     5     9   ar
    26    13    15    1
    27    15    16    2
    28    15    17   am
    29    18    17    1
    30    18    19    1
    31    19    20    1
    32    20    21    1
    33    21    22    1
    34    22    23    1
    35    23    24    1
    36    17    11   am
    37    23    18    1
    38     9     1   ar
    39     8     4   ar
    40    33    27   ar
    41    21    25    1
@<TRIPOS>MOLECULE
*****
 37 41 0 0 0
SMALL
GASTEIGER

@<TRIPOS>ATOM
      1 C         143.7494  139.3272  162.7229 C.ar    1  UNL1        0.0008
      2 C         144.1057  140.7122  162.2702 C.ar    1  UNL1        0.0016
      3 C         144.0423  141.0646  160.8136 C.ar    1  UNL1        0.0188
      4 C         143.6226  140.0321  159.8097 C.ar    1  UNL1        0.0798
      5 C         143.2663  138.6472  160.2624 C.ar    1  UNL1        0.0382
      6 C         142.8909  137.8458  159.0513 C.ar    1  UNL1        0.1216
      7 N         143.0152  138.7355  157.8500 N.ar    1  UNL1       -0.1674
      8 N         143.4674  140.0867  158.3187 N.ar    1  UNL1       -0.2464
      9 C         143.3297  138.2947  161.7190 C.ar    1  UNL1        0.0031
     10 O         140.1498  142.1697  166.2426 O.2     1  UNL1       -0.2620
     11 C         141.2278  141.1355  166.1069 C.2     1  UNL1        0.2865
     12 S         141.9016  140.7264  164.8307 S.3     1  UNL1       -0.0252
     13 C         142.9115  139.6670  165.1587 C.2     1  UNL1        0.0875
     14 C         143.8128  138.9747  164.1796 C.2     1  UNL1        0.0112
     15 C         142.8619  139.4213  166.6376 C.2     1  UNL1        0.2615
     16 O         143.7049  138.4402  167.3971 O.2     1  UNL1       -0.2689
     17 N         141.8213  140.3289  167.2236 N.am    1  UNL1       -0.2160
     18 C         141.4411  140.4147  168.6721 C.3     1  UNL1        0.1187
     19 C         142.4572  140.8397  169.6903 C.3     1  UNL1        0.0402
     20 C         142.0769  140.9256  171.1387 C.3     1  UNL1        0.0704
     21 N         140.6805  140.5864  171.5689 N.3     1  UNL1       -0.2951
     22 C         139.6644  140.1614  170.5506 C.3     1  UNL1        0.1060
     23 C         140.0447  140.0755  169.1022 C.3     1  UNL1        0.1950
     24 F         139.0286  139.6505  168.0840 F       1  UNL1       -0.2340
     25 H         140.3055  141.4147  172.0312 H       1  UNL1        0.1233
     26 C         143.7201  141.2826  157.4492 C.3     1  UNL1        0.1537
     27 C         145.0795  141.5041  156.8551 C.ar    1  UNL1        0.0061
     28 C         146.0624  142.4025  157.5457 C.ar    1  UNL1       -0.0015
     29 C         147.4218  142.6240  156.9517 C.ar    1  UNL1        0.0111
     30 C         147.7984  141.9472  155.6670 C.ar    1  UNL1        0.0576
     31 CL        149.1578  142.1688  155.0729 Cl      1  UNL1       -0.0823
     32 C         146.8154  141.0489  154.9765 C.ar    1  UNL1        0.0150
     33 C         145.4560  140.8274  155.5706 C.ar    1  UNL1        0.0702
     34 C         144.4731  139.9291  154.8800 C.3     1  UNL1        0.4184
     35 F         143.4901  139.0307  154.1895 F       1  UNL1       -0.1659
     36 F         143.7906  141.1282  154.2916 F       1  UNL1       -0.1659
     37 F         145.1555  138.7299  155.4685 F       1  UNL1       -0.1659
@<TRIPOS>BOND
     1    10    11    2
     2    11    12    1
     3    12    13    1
     4    13    14    2
     5    14     1    1
     6     1     2   ar
     7     2     3   ar
     8     3     4   ar
     9     4     5   ar
    10     5     6   ar
    11     6     7   ar
    12     7     8   ar
    13     8    26    1
    14    26    27    1
    15    27    28   ar
    16    28    29   ar
    17    29    30   ar
    18    30    31    1
    19    30    32   ar
    20    32    33   ar
    21    33    34    1
    22    34    35    1
    23    34    36    1
    24    34    37    1
    25     5     9   ar
    26    13    15    1
    27    15    16    2
    28    15    17   am
    29    18    17    1
    30    18    19    1
    31    19    20    1
    32    20    21    1
    33    21    22    1
    34    22    23    1
    35    23    24    1
    36    17    11   am
    37    23    18    1
    38     9     1   ar
    39     8     4   ar
    40    33    27   ar
    41    21    25    1
@<TRIPOS>MOLECULE
*****
 37 41 0 0 0
SMALL
GASTEIGER

@<TRIPOS>ATOM
      1 C         138.8050  141.8248  161.2250 C.ar    1  UNL1        0.0008
      2 C         138.3654  142.7393  162.3297 C.ar    1  UNL1        0.0016
      3 C         138.7221  142.4229  163.7518 C.ar    1  UNL1        0.0188
      4 C         139.5183  141.1919  164.0693 C.ar    1  UNL1        0.0798
      5 C         139.9579  140.2774  162.9646 C.ar    1  UNL1        0.0382
      6 C         140.7267  139.1452  163.5785 C.ar    1  UNL1        0.1216
      7 N         140.7623  139.3599  165.0626 N.ar    1  UNL1       -0.1674
      8 N         140.0155  140.6249  165.3660 N.ar    1  UNL1       -0.2464
      9 C         139.6012  140.5939  161.5424 C.ar    1  UNL1        0.0031
     10 O         142.0038  145.8479  158.5780 O.2     1  UNL1       -0.2620
     11 C         140.8642  144.8773  158.4824 C.2     1  UNL1        0.2865
     12 S         140.3875  143.9668  159.5750 S.3     1  UNL1       -0.0252
     13 C         139.2299  143.1735  159.0454 C.2     1  UNL1        0.0875
     14 C         138.4483  142.1412  159.8027 C.2     1  UNL1        0.0112
     15 C         138.9911  143.5937  157.6254 C.2     1  UNL1        0.2615
     16 O         137.9288  143.0554  156.7134 O.2     1  UNL1       -0.2689
     17 N         140.0012  144.6467  157.2774 N.am    1  UNL1       -0.2160
     18 C         140.1262  145.3463  155.9565 C.3     1  UNL1        0.1187
     19 C         140.6188  144.5965  154.7544 C.3     1  UNL1        0.0402
     20 C         140.7439  145.2960  153.4335 C.3     1  UNL1        0.0704
     21 N         140.3762  146.7454  153.3146 N.3     1  UNL1       -0.2951
     22 C         139.8835  147.4952  154.5167 C.3     1  UNL1        0.1060
     23 C         139.7585  146.7957  155.8377 C.3     1  UNL1        0.1950
     24 F         139.2658  147.5454  157.0398 F       1  UNL1       -0.2340
     25 H         139.6425  146.8061  152.6086 H       1  UNL1        0.1233
     26 C         139.8031  141.2186  166.7270 C.3     1  UNL1        0.1537
     27 C         140.9828  141.5769  167.5814 C.ar    1  UNL1        0.0061
     28 C         142.2398  142.0929  166.9459 C.ar    1  UNL1       -0.0015
     29 C         143.4195  142.4513  167.8003 C.ar    1  UNL1        0.0111
     30 C         143.3423  142.2937  169.2900 C.ar    1  UNL1        0.0576
     31 CL        144.5219  142.6520  170.1444 Cl      1  UNL1       -0.0823
     32 C         142.0852  141.7777  169.9254 C.ar    1  UNL1        0.0150
     33 C         140.9055  141.4193  169.0710 C.ar    1  UNL1        0.0702
     34 C         139.6485  140.9033  169.7064 C.3     1  UNL1        0.4184
     35 F         138.3915  140.3874  170.3417 F       1  UNL1       -0.1659
     36 F         139.2727  142.3016  170.0985 F       1  UNL1       -0.1659
     37 F         140.0243  139.5051  169.3143 F       1  UNL1       -0.1659
@<TRIPOS>BOND
     1    10    11    2
     2    11    12    1
     3    12    13    1
     4    13    14    2
     5    14     1    1
     6     1     2   ar
     7     2     3   ar
     8     3     4   ar
     9     4     5   ar
    10     5     6   ar
    11     6     7   ar
    12     7     8   ar
    13     8    26    1
    14    26    27    1
    15    27    28   ar
    16    28    29   ar
    17    29    30   ar
    18    30    31    1
    19    30    32   ar
    20    32    33   ar
    21    33    34    1
    22    34    35    1
    23    34    36    1
    24    34    37    1
    25     5     9   ar
    26    13    15    1
    27    15    16    2
    28    15    17   am
    29    18    17    1
    30    18    19    1
    31    19    20    1
    32    20    21    1
    33    21    22    1
    34    22    23    1
    35    23    24    1
    36    17    11   am
    37    23    18    1
    38     9     1   ar
    39     8     4   ar
    40    33    27   ar
    41    21    25    1
@<TRIPOS>MOLECULE
*****
 37 41 0 0 0
SMALL
GASTEIGER

@<TRIPOS>ATOM
      1 C         138.7537  138.7835  163.1098 C.ar    1  UNL1        0.0008
      2 C         139.8422  137.9375  162.5187 C.ar    1  UNL1        0.0016
      3 C         140.0780  137.9461  161.0374 C.ar    1  UNL1        0.0188
      4 C         139.2254  138.8008  160.1472 C.ar    1  UNL1        0.0798
      5 C         138.1369  139.6468  160.7383 C.ar    1  UNL1        0.0382
      6 C         137.4619  140.3823  159.6187 C.ar    1  UNL1        0.1216
      7 N         138.1332  139.9908  158.3357 N.ar    1  UNL1       -0.1674
      8 N         139.2231  139.0134  158.6623 N.ar    1  UNL1       -0.2464
      9 C         137.9010  139.6382  162.2195 C.ar    1  UNL1        0.0031
     10 O         141.9676  142.4013  166.2731 O.2     1  UNL1       -0.2620
     11 C         140.8967  141.3512  166.2553 C.2     1  UNL1        0.2865
     12 S         140.3680  140.6516  165.0383 S.3     1  UNL1       -0.0252
     13 C         139.3110  139.6843  165.4822 C.2     1  UNL1        0.0875
     14 C         138.5178  138.7749  164.5911 C.2     1  UNL1        0.0112
     15 C         139.1864  139.7860  166.9735 C.2     1  UNL1        0.2615
     16 O         138.2468  138.9963  167.8357 O.2     1  UNL1       -0.2689
     17 N         140.1664  140.8162  167.4513 N.am    1  UNL1       -0.2160
     18 C         140.3788  141.2375  168.8752 C.3     1  UNL1        0.1187
     19 C         140.7131  140.2130  169.9185 C.3     1  UNL1        0.0402
     20 C         140.9255  140.6342  171.3424 C.3     1  UNL1        0.0704
     21 N         140.8036  142.0800  171.7229 N.3     1  UNL1       -0.2951
     22 C         140.4693  143.1046  170.6795 C.3     1  UNL1        0.1060
     23 C         140.2569  142.6833  169.2556 C.3     1  UNL1        0.1950
     24 F         139.9226  143.7078  168.2124 F       1  UNL1       -0.2340
     25 H         141.6984  142.3541  172.1287 H       1  UNL1        0.1233
     26 C         140.1483  138.3627  157.6771 C.3     1  UNL1        0.1537
     27 C         141.2634  139.1538  157.0600 C.ar    1  UNL1        0.0061
     28 C         140.9938  140.0291  155.8720 C.ar    1  UNL1       -0.0015
     29 C         142.1089  140.8202  155.2550 C.ar    1  UNL1        0.0111
     30 C         143.4935  140.7359  155.8257 C.ar    1  UNL1        0.0576
     31 CL        144.6086  141.5270  155.2086 Cl      1  UNL1       -0.0823
     32 C         143.7630  139.8606  157.0136 C.ar    1  UNL1        0.0150
     33 C         142.6479  139.0695  157.6307 C.ar    1  UNL1        0.0702
     34 C         142.9174  138.1941  158.8186 C.3     1  UNL1        0.4184
     35 F         143.1869  137.3188  160.0065 F       1  UNL1       -0.1659
     36 F         142.7591  139.3776  159.7266 F       1  UNL1       -0.1659
     37 F         143.0758  137.0107  157.9106 F       1  UNL1       -0.1659
@<TRIPOS>BOND
     1    10    11    2
     2    11    12    1
     3    12    13    1
     4    13    14    2
     5    14     1    1
     6     1     2   ar
     7     2     3   ar
     8     3     4   ar
     9     4     5   ar
    10     5     6   ar
    11     6     7   ar
    12     7     8   ar
    13     8    26    1
    14    26    27    1
    15    27    28   ar
    16    28    29   ar
    17    29    30   ar
    18    30    31    1
    19    30    32   ar
    20    32    33   ar
    21    33    34    1
    22    34    35    1
    23    34    36    1
    24    34    37    1
    25     5     9   ar
    26    13    15    1
    27    15    16    2
    28    15    17   am
    29    18    17    1
    30    18    19    1
    31    19    20    1
    32    20    21    1
    33    21    22    1
    34    22    23    1
    35    23    24    1
    36    17    11   am
    37    23    18    1
    38     9     1   ar
    39     8     4   ar
    40    33    27   ar
    41    21    25    1
@<TRIPOS>MOLECULE
*****
 37 41 0 0 0
SMALL
GASTEIGER

@<TRIPOS>ATOM
      1 C         138.9562  138.7391  163.1972 C.ar    1  UNL1        0.0008
      2 C         140.1135  137.9507  162.6597 C.ar    1  UNL1        0.0016
      3 C         140.3928  137.9386  161.1860 C.ar    1  UNL1        0.0188
      4 C         139.5148  138.7150  160.2498 C.ar    1  UNL1        0.0798
      5 C         138.3575  139.5034  160.7874 C.ar    1  UNL1        0.0382
      6 C         137.6712  140.1667  159.6302 C.ar    1  UNL1        0.1216
      7 N         138.4043  139.7882  158.3775 N.ar    1  UNL1       -0.1674
      8 N         139.5437  138.8909  158.7604 N.ar    1  UNL1       -0.2464
      9 C         138.0782  139.5155  162.2611 C.ar    1  UNL1        0.0031
     10 O         142.1086  142.3684  166.4090 O.2     1  UNL1       -0.2620
     11 C         141.0291  141.3275  166.3726 C.2     1  UNL1        0.2865
     12 S         140.5301  140.6173  165.1493 S.3     1  UNL1       -0.0252
     13 C         139.4518  139.6649  165.5737 C.2     1  UNL1        0.0875
     14 C         138.6769  138.7513  164.6710 C.2     1  UNL1        0.0112
     15 C         139.2844  139.7865  167.0594 C.2     1  UNL1        0.2615
     16 O         138.3127  139.0159  167.9032 O.2     1  UNL1       -0.2689
     17 N         140.2592  140.8141  167.5531 N.am    1  UNL1       -0.2160
     18 C         140.4336  141.2514  168.9773 C.3     1  UNL1        0.1187
     19 C         139.8849  142.5723  169.4288 C.3     1  UNL1        0.0402
     20 C         140.0592  143.0096  170.8530 C.3     1  UNL1        0.0704
     21 N         140.7823  142.1259  171.8257 N.3     1  UNL1       -0.2951
     22 C         141.3310  140.8048  171.3742 C.3     1  UNL1        0.1060
     23 C         141.1566  140.3675  169.9500 C.3     1  UNL1        0.1950
     24 F         141.7053  139.0466  169.4985 F       1  UNL1       -0.2340
     25 H         140.1310  141.9299  172.5858 H       1  UNL1        0.1233
     26 C         140.5376  138.2774  157.8193 C.3     1  UNL1        0.1537
     27 C         141.8112  139.0012  157.4971 C.ar    1  UNL1        0.0061
     28 C         142.1614  140.2641  158.2270 C.ar    1  UNL1       -0.0015
     29 C         143.4351  140.9879  157.9048 C.ar    1  UNL1        0.0111
     30 C         144.3586  140.4490  156.8527 C.ar    1  UNL1        0.0576
     31 CL        145.6323  141.1729  156.5306 Cl      1  UNL1       -0.0823
     32 C         144.0084  139.1862  156.1229 C.ar    1  UNL1        0.0150
     33 C         142.7347  138.4624  156.4451 C.ar    1  UNL1        0.0702
     34 C         142.3845  137.1995  155.7153 C.3     1  UNL1        0.4184
     35 F         142.0343  135.9367  154.9855 F       1  UNL1       -0.1659
     36 F         143.0960  136.3964  156.7635 F       1  UNL1       -0.1659
     37 F         141.6731  138.0027  154.6670 F       1  UNL1       -0.1659
@<TRIPOS>BOND
     1    10    11    2
     2    11    12    1
     3    12    13    1
     4    13    14    2
     5    14     1    1
     6     1     2   ar
     7     2     3   ar
     8     3     4   ar
     9     4     5   ar
    10     5     6   ar
    11     6     7   ar
    12     7     8   ar
    13     8    26    1
    14    26    27    1
    15    27    28   ar
    16    28    29   ar
    17    29    30   ar
    18    30    31    1
    19    30    32   ar
    20    32    33   ar
    21    33    34    1
    22    34    35    1
    23    34    36    1
    24    34    37    1
    25     5     9   ar
    26    13    15    1
    27    15    16    2
    28    15    17   am
    29    18    17    1
    30    18    19    1
    31    19    20    1
    32    20    21    1
    33    21    22    1
    34    22    23    1
    35    23    24    1
    36    17    11   am
    37    23    18    1
    38     9     1   ar
    39     8     4   ar
    40    33    27   ar
    41    21    25    1
@<TRIPOS>MOLECULE
*****
 37 41 0 0 0
SMALL
GASTEIGER

@<TRIPOS>ATOM
      1 C         140.3960  141.0604  159.6108 C.ar    1  UNL1        0.0008
      2 C         140.0363  141.3176  161.0440 C.ar    1  UNL1        0.0016
      3 C         140.7610  140.5948  162.1405 C.ar    1  UNL1        0.0188
      4 C         141.8455  139.6148  161.8037 C.ar    1  UNL1        0.0798
      5 C         142.2053  139.3575  160.3704 C.ar    1  UNL1        0.0382
      6 C         143.3098  138.3431  160.3446 C.ar    1  UNL1        0.1216
      7 N         143.6328  137.9733  161.7620 N.ar    1  UNL1       -0.1674
      8 N         142.7278  138.7592  162.6638 N.ar    1  UNL1       -0.2464
      9 C         141.4805  140.0803  159.2739 C.ar    1  UNL1        0.0031
     10 O         142.5496  146.1810  158.0092 O.2     1  UNL1       -0.2620
     11 C         141.4893  145.1392  157.8086 C.2     1  UNL1        0.2865
     12 S         141.3654  143.8502  158.5657 S.3     1  UNL1       -0.0252
     13 C         140.1663  143.1177  158.0408 C.2     1  UNL1        0.0875
     14 C         139.6713  141.7832  158.5142 C.2     1  UNL1        0.0112
     15 C         139.5491  143.9540  156.9593 C.2     1  UNL1        0.2615
     16 O         138.3285  143.6027  156.1614 O.2     1  UNL1       -0.2689
     17 N         140.3667  145.2033  156.8158 N.am    1  UNL1       -0.2160
     18 C         140.1073  146.3207  155.8492 C.3     1  UNL1        0.1187
     19 C         139.1255  147.4001  156.1966 C.3     1  UNL1        0.0402
     20 C         138.8661  148.5174  155.2300 C.3     1  UNL1        0.0704
     21 N         139.5885  148.5552  153.9160 N.3     1  UNL1       -0.2951
     22 C         140.5704  147.4757  153.5686 C.3     1  UNL1        0.1060
     23 C         140.8298  146.3584  154.5352 C.3     1  UNL1        0.1950
     24 F         141.8117  145.2790  154.1878 F       1  UNL1       -0.2340
     25 H         140.0986  149.4380  153.8857 H       1  UNL1        0.1233
     26 C         142.7084  138.7001  164.1625 C.3     1  UNL1        0.1537
     27 C         141.3998  138.6687  164.8950 C.ar    1  UNL1        0.0061
     28 C         140.3620  137.6479  164.5330 C.ar    1  UNL1       -0.0015
     29 C         139.0534  137.6165  165.2655 C.ar    1  UNL1        0.0111
     30 C         138.7825  138.6060  166.3599 C.ar    1  UNL1        0.0576
     31 CL        137.4738  138.5746  167.0923 Cl      1  UNL1       -0.0823
     32 C         139.8203  139.6267  166.7218 C.ar    1  UNL1        0.0150
     33 C         141.1289  139.6581  165.9893 C.ar    1  UNL1        0.0702
     34 C         142.1667  140.6789  166.3512 C.3     1  UNL1        0.4184
     35 F         143.2045  141.6997  166.7131 F       1  UNL1       -0.1659
     36 F         141.5831  141.6282  165.3471 F       1  UNL1       -0.1659
     37 F         142.7502  139.7296  167.3554 F       1  UNL1       -0.1659
@<TRIPOS>BOND
     1    10    11    2
     2    11    12    1
     3    12    13    1
     4    13    14    2
     5    14     1    1
     6     1     2   ar
     7     2     3   ar
     8     3     4   ar
     9     4     5   ar
    10     5     6   ar
    11     6     7   ar
    12     7     8   ar
    13     8    26    1
    14    26    27    1
    15    27    28   ar
    16    28    29   ar
    17    29    30   ar
    18    30    31    1
    19    30    32   ar
    20    32    33   ar
    21    33    34    1
    22    34    35    1
    23    34    36    1
    24    34    37    1
    25     5     9   ar
    26    13    15    1
    27    15    16    2
    28    15    17   am
    29    18    17    1
    30    18    19    1
    31    19    20    1
    32    20    21    1
    33    21    22    1
    34    22    23    1
    35    23    24    1
    36    17    11   am
    37    23    18    1
    38     9     1   ar
    39     8     4   ar
    40    33    27   ar
    41    21    25    1
@<TRIPOS>MOLECULE
*****
 37 41 0 0 0
SMALL
GASTEIGER

@<TRIPOS>ATOM
      1 C         138.7078  141.7651  160.4884 C.ar    1  UNL1        0.0008
      2 C         138.0876  142.4543  161.6675 C.ar    1  UNL1        0.0016
      3 C         138.3907  141.9803  163.0580 C.ar    1  UNL1        0.0188
      4 C         139.3140  140.8172  163.2693 C.ar    1  UNL1        0.0798
      5 C         139.9341  140.1280  162.0902 C.ar    1  UNL1        0.0382
      6 C         140.7991  139.0161  162.6054 C.ar    1  UNL1        0.1216
      7 N         140.7136  139.0181  164.1030 N.ar    1  UNL1       -0.1674
      8 N         139.7957  140.1313  164.5133 N.ar    1  UNL1       -0.2464
      9 C         139.6310  140.6020  160.6997 C.ar    1  UNL1        0.0031
     10 O         142.0890  145.9520  158.3761 O.2     1  UNL1       -0.2620
     11 C         140.9291  145.0293  158.1453 C.2     1  UNL1        0.2865
     12 S         140.3952  144.0230  159.1211 S.3     1  UNL1       -0.0252
     13 C         139.2356  143.3227  158.4770 C.2     1  UNL1        0.0875
     14 C         138.4047  142.2391  159.0978 C.2     1  UNL1        0.0112
     15 C         139.0528  143.8962  157.1031 C.2     1  UNL1        0.2615
     16 O         138.0070  143.4869  156.1088 O.2     1  UNL1       -0.2689
     17 N         140.0994  144.9510  156.8981 N.am    1  UNL1       -0.2160
     18 C         140.2839  145.7816  155.6627 C.3     1  UNL1        0.1187
     19 C         141.1181  145.2640  154.5287 C.3     1  UNL1        0.0402
     20 C         141.3026  146.0946  153.2934 C.3     1  UNL1        0.0704
     21 N         140.6529  147.4428  153.1921 N.3     1  UNL1       -0.2951
     22 C         139.8187  147.9604  154.3263 C.3     1  UNL1        0.1060
     23 C         139.6342  147.1298  155.5616 C.3     1  UNL1        0.1950
     24 F         138.8001  147.6474  156.6956 F       1  UNL1       -0.2340
     25 H         140.0495  147.4179  152.3702 H       1  UNL1        0.1233
     26 C         139.4247  140.4947  165.9205 C.3     1  UNL1        0.1537
     27 C         140.4953  140.8368  166.9139 C.ar    1  UNL1        0.0061
     28 C         140.8397  139.8702  168.0080 C.ar    1  UNL1       -0.0015
     29 C         141.9103  140.2123  169.0014 C.ar    1  UNL1        0.0111
     30 C         142.6365  141.5210  168.9007 C.ar    1  UNL1        0.0576
     31 CL        143.7071  141.8631  169.8940 Cl      1  UNL1       -0.0823
     32 C         142.2920  142.4876  167.8066 C.ar    1  UNL1        0.0150
     33 C         141.2214  142.1454  166.8132 C.ar    1  UNL1        0.0702
     34 C         140.8768  143.1120  165.7191 C.3     1  UNL1        0.4184
     35 F         140.5323  144.0785  164.6250 F       1  UNL1       -0.1659
     36 F         141.9594  142.5269  164.8613 F       1  UNL1       -0.1659
     37 F         139.7942  143.6970  166.5768 F       1  UNL1       -0.1659
@<TRIPOS>BOND
     1    10    11    2
     2    11    12    1
     3    12    13    1
     4    13    14    2
     5    14     1    1
     6     1     2   ar
     7     2     3   ar
     8     3     4   ar
     9     4     5   ar
    10     5     6   ar
    11     6     7   ar
    12     7     8   ar
    13     8    26    1
    14    26    27    1
    15    27    28   ar
    16    28    29   ar
    17    29    30   ar
    18    30    31    1
    19    30    32   ar
    20    32    33   ar
    21    33    34    1
    22    34    35    1
    23    34    36    1
    24    34    37    1
    25     5     9   ar
    26    13    15    1
    27    15    16    2
    28    15    17   am
    29    18    17    1
    30    18    19    1
    31    19    20    1
    32    20    21    1
    33    21    22    1
    34    22    23    1
    35    23    24    1
    36    17    11   am
    37    23    18    1
    38     9     1   ar
    39     8     4   ar
    40    33    27   ar
    41    21    25    1
