@<TRIPOS>MOLECULE
*****
 26 30 0 0 0
SMALL
GASTEIGER

@<TRIPOS>ATOM
      1 C         139.3460  138.1420  164.4378 C.3     1  UNL1        0.0768
      2 C         138.2877  137.8579  165.4621 C.3     1  UNL1        0.0096
      3 C         139.3851  138.8336  165.7682 C.3     1  UNL1        0.0113
      4 C         140.6297  139.5609  165.3535 C.3     1  UNL1        0.0178
      5 C         141.2858  140.5235  166.2984 C.3     1  UNL1        0.0721
      6 N         140.6974  140.7588  167.6579 N.3     1  UNL1       -0.2738
      7 C         139.4528  140.0315  168.0726 C.3     1  UNL1        0.0721
      8 C         138.7967  139.0689  167.1278 C.3     1  UNL1        0.0178
      9 O         140.9941  136.8619  162.8902 O.2     1  UNL1       -0.2749
     10 C         139.9344  137.9067  163.0782 C.2     1  UNL1        0.2252
     11 N         139.4631  138.7162  161.9067 N.am    1  UNL1       -0.2767
     12 C         138.4034  139.7610  162.0947 C.3     1  UNL1        0.1107
     13 C         137.9320  140.5706  160.9231 C.3     1  UNL1        0.0939
     14 N         138.5205  140.3353  159.5635 N.3     1  UNL1       -0.2711
     15 C         139.5802  139.2904  159.3756 C.3     1  UNL1        0.0939
     16 C         140.0515  138.4810  160.5471 C.3     1  UNL1        0.1107
     17 C         138.0492  141.1448  158.3920 C.3     1  UNL1        0.0576
     18 C         138.1230  142.5919  158.0042 C.3     1  UNL1        0.0160
     19 C         137.3827  142.2896  156.7351 C.3     1  UNL1        0.0028
     20 C         137.3089  140.8425  157.1229 C.3     1  UNL1        0.0160
     21 C         141.3536  141.7215  168.6028 C.3     1  UNL1        0.0625
     22 C         142.7994  141.5505  168.9637 C.3     1  UNL1        0.0481
     23 C         143.4556  142.5132  169.9085 C.3     1  UNL1        0.1435
     24 O         142.6659  143.6469  170.4925 O.3     1  UNL1       -0.3537
     25 C         141.2200  143.8179  170.1316 C.3     1  UNL1        0.1435
     26 C         140.5639  142.8552  169.1868 C.3     1  UNL1        0.0481
@<TRIPOS>BOND
     1     9    10    2
     2    10     1    1
     3     1     2    1
     4     2     3    1
     5     3     4    1
     6     4     5    1
     7     5     6    1
     8     6    21    1
     9    21    22    1
    10    22    23    1
    11    23    24    1
    12    24    25    1
    13    25    26    1
    14     6     7    1
    15     7     8    1
    16    10    11   am
    17    11    12    1
    18    12    13    1
    19    13    14    1
    20    14    17    1
    21    17    18    1
    22    18    19    1
    23    19    20    1
    24    14    15    1
    25    15    16    1
    26     3     1    1
    27    26    21    1
    28    16    11    1
    29     8     3    1
    30    20    17    1
@<TRIPOS>MOLECULE
*****
 26 30 0 0 0
SMALL
GASTEIGER

@<TRIPOS>ATOM
      1 C         144.2307  140.2872  163.8869 C.3     1  UNL1        0.0768
      2 C         144.0763  138.8746  164.3673 C.3     1  UNL1        0.0096
      3 C         143.5816  140.0120  165.2109 C.3     1  UNL1        0.0113
      4 C         143.3851  141.4842  165.4206 C.3     1  UNL1        0.0178
      5 C         142.7247  141.9819  166.6720 C.3     1  UNL1        0.0721
      6 N         142.2608  141.0074  167.7137 N.3     1  UNL1       -0.2738
      7 C         142.4573  139.5353  167.5040 C.3     1  UNL1        0.0721
      8 C         143.1176  139.0375  166.2526 C.3     1  UNL1        0.0178
      9 O         146.0998  141.7851  162.8807 O.2     1  UNL1       -0.2749
     10 C         144.6946  141.2616  162.8452 C.2     1  UNL1        0.2252
     11 N         143.7533  141.7126  161.7679 N.am    1  UNL1       -0.2767
     12 C         142.3480  141.1891  161.7324 C.3     1  UNL1        0.1107
     13 C         141.4067  141.6401  160.6550 C.3     1  UNL1        0.0939
     14 N         141.8706  142.6145  159.6133 N.3     1  UNL1       -0.2711
     15 C         143.2759  143.1380  159.6489 C.3     1  UNL1        0.0939
     16 C         144.2172  142.6870  160.7262 C.3     1  UNL1        0.1107
     17 C         140.9293  143.0655  158.5360 C.3     1  UNL1        0.0576
     18 C         140.0579  144.2679  158.3239 C.3     1  UNL1        0.0160
     19 C         139.5981  143.7033  157.0125 C.3     1  UNL1        0.0028
     20 C         140.4695  142.5009  157.2246 C.3     1  UNL1        0.0160
     21 C         141.6004  141.5053  168.9652 C.3     1  UNL1        0.0625
     22 C         140.8148  142.7828  168.9414 C.3     1  UNL1        0.0481
     23 C         140.1544  143.2806  170.1929 C.3     1  UNL1        0.1435
     24 O         140.2796  142.5008  171.4681 O.3     1  UNL1       -0.3537
     25 C         141.0652  141.2232  171.4918 C.3     1  UNL1        0.1435
     26 C         141.7256  140.7254  170.2404 C.3     1  UNL1        0.0481
@<TRIPOS>BOND
     1     9    10    2
     2    10     1    1
     3     1     2    1
     4     2     3    1
     5     3     4    1
     6     4     5    1
     7     5     6    1
     8     6    21    1
     9    21    22    1
    10    22    23    1
    11    23    24    1
    12    24    25    1
    13    25    26    1
    14     6     7    1
    15     7     8    1
    16    10    11   am
    17    11    12    1
    18    12    13    1
    19    13    14    1
    20    14    17    1
    21    17    18    1
    22    18    19    1
    23    19    20    1
    24    14    15    1
    25    15    16    1
    26     3     1    1
    27    26    21    1
    28    16    11    1
    29     8     3    1
    30    20    17    1
@<TRIPOS>MOLECULE
*****
 26 30 0 0 0
SMALL
GASTEIGER

@<TRIPOS>ATOM
      1 C         144.3151  139.8331  163.6933 C.3     1  UNL1        0.0768
      2 C         144.8536  138.7643  164.5976 C.3     1  UNL1        0.0096
      3 C         143.7704  139.6817  165.0827 C.3     1  UNL1        0.0113
      4 C         142.8342  140.8283  164.8406 C.3     1  UNL1        0.0178
      5 C         141.8944  141.2705  165.9228 C.3     1  UNL1        0.0721
      6 N         141.8908  140.5660  167.2471 N.3     1  UNL1       -0.2738
      7 C         142.8271  139.4194  167.4892 C.3     1  UNL1        0.0721
      8 C         143.7669  138.9772  166.4070 C.3     1  UNL1        0.0178
      9 O         144.7559  141.9697  162.2826 O.2     1  UNL1       -0.2749
     10 C         144.3186  140.5375  162.3691 C.2     1  UNL1        0.2252
     11 N         143.8849  139.8097  161.1312 N.am    1  UNL1       -0.2767
     12 C         143.4476  138.3775  161.2177 C.3     1  UNL1        0.1107
     13 C         143.0138  137.6496  159.9798 C.3     1  UNL1        0.0939
     14 N         143.0174  138.3541  158.6556 N.3     1  UNL1       -0.2711
     15 C         143.4547  139.7864  158.5691 C.3     1  UNL1        0.0939
     16 C         143.8884  140.5141  159.8069 C.3     1  UNL1        0.1107
     17 C         142.5836  137.6263  157.4178 C.3     1  UNL1        0.0576
     18 C         143.2922  136.9432  156.2858 C.3     1  UNL1        0.0160
     19 C         141.9702  136.5971  155.6672 C.3     1  UNL1        0.0028
     20 C         141.2617  137.2802  156.7992 C.3     1  UNL1        0.0160
     21 C         140.9510  141.0083  168.3294 C.3     1  UNL1        0.0625
     22 C         139.9160  140.0598  168.8577 C.3     1  UNL1        0.0481
     23 C         138.9762  140.5021  169.9399 C.3     1  UNL1        0.1435
     24 O         139.0713  141.8928  170.4938 O.3     1  UNL1       -0.3537
     25 C         140.1064  142.8413  169.9654 C.3     1  UNL1        0.1435
     26 C         141.0461  142.3991  168.8832 C.3     1  UNL1        0.0481
@<TRIPOS>BOND
     1     9    10    2
     2    10     1    1
     3     1     2    1
     4     2     3    1
     5     3     4    1
     6     4     5    1
     7     5     6    1
     8     6    21    1
     9    21    22    1
    10    22    23    1
    11    23    24    1
    12    24    25    1
    13    25    26    1
    14     6     7    1
    15     7     8    1
    16    10    11   am
    17    11    12    1
    18    12    13    1
    19    13    14    1
    20    14    17    1
    21    17    18    1
    22    18    19    1
    23    19    20    1
    24    14    15    1
    25    15    16    1
    26     3     1    1
    27    26    21    1
    28    16    11    1
    29     8     3    1
    30    20    17    1
@<TRIPOS>MOLECULE
*****
 26 30 0 0 0
SMALL
GASTEIGER

@<TRIPOS>ATOM
      1 C         141.7601  138.0492  157.8673 C.3     1  UNL1        0.0768
      2 C         140.7646  138.0969  156.7463 C.3     1  UNL1        0.0096
      3 C         141.7099  136.9379  156.8611 C.3     1  UNL1        0.0113
      4 C         142.8303  136.2412  157.5746 C.3     1  UNL1        0.0178
      5 C         143.3470  134.9304  157.0599 C.3     1  UNL1        0.0721
      6 N         142.7432  134.3164  155.8318 N.3     1  UNL1       -0.2738
      7 C         141.6228  135.0131  155.1183 C.3     1  UNL1        0.0721
      8 C         141.1061  136.3238  155.6330 C.3     1  UNL1        0.0178
      9 O         143.7522  139.2289  159.0461 O.2     1  UNL1       -0.2749
     10 C         142.3639  138.6632  159.0955 C.2     1  UNL1        0.2252
     11 N         141.5793  138.7115  160.3731 N.am    1  UNL1       -0.2767
     12 C         140.1909  138.1459  160.4224 C.3     1  UNL1        0.1107
     13 C         139.4063  138.1942  161.7000 C.3     1  UNL1        0.0939
     14 N         140.0101  138.8082  162.9281 N.3     1  UNL1       -0.2711
     15 C         141.3985  139.3739  162.8787 C.3     1  UNL1        0.0939
     16 C         142.1830  139.3256  161.6012 C.3     1  UNL1        0.1107
     17 C         139.2255  138.8566  164.2057 C.3     1  UNL1        0.0576
     18 C         138.8598  137.8587  165.2642 C.3     1  UNL1        0.0160
     19 C         138.1160  138.9250  166.0124 C.3     1  UNL1        0.0028
     20 C         138.4817  139.9229  164.9538 C.3     1  UNL1        0.0160
     21 C         143.2600  133.0056  155.3171 C.3     1  UNL1        0.0625
     22 C         144.2691  132.2325  156.1133 C.3     1  UNL1        0.0481
     23 C         144.7859  130.9217  155.5986 C.3     1  UNL1        0.1435
     24 O         144.2934  130.3840  154.2877 O.3     1  UNL1       -0.3537
     25 C         143.2842  131.1572  153.4915 C.3     1  UNL1        0.1435
     26 C         142.7675  132.4679  154.0062 C.3     1  UNL1        0.0481
@<TRIPOS>BOND
     1     9    10    2
     2    10     1    1
     3     1     2    1
     4     2     3    1
     5     3     4    1
     6     4     5    1
     7     5     6    1
     8     6    21    1
     9    21    22    1
    10    22    23    1
    11    23    24    1
    12    24    25    1
    13    25    26    1
    14     6     7    1
    15     7     8    1
    16    10    11   am
    17    11    12    1
    18    12    13    1
    19    13    14    1
    20    14    17    1
    21    17    18    1
    22    18    19    1
    23    19    20    1
    24    14    15    1
    25    15    16    1
    26     3     1    1
    27    26    21    1
    28    16    11    1
    29     8     3    1
    30    20    17    1
@<TRIPOS>MOLECULE
*****
 26 30 0 0 0
SMALL
GASTEIGER

@<TRIPOS>ATOM
      1 C         140.2268  138.7183  163.4639 C.3     1  UNL1        0.0768
      2 C         138.8801  138.2045  163.8789 C.3     1  UNL1        0.0096
      3 C         139.7103  138.9979  164.8441 C.3     1  UNL1        0.0113
      4 C         140.9671  139.7525  165.1616 C.3     1  UNL1        0.0178
      5 C         141.1481  140.3719  166.5157 C.3     1  UNL1        0.0721
      6 N         140.0724  140.2366  167.5522 N.3     1  UNL1       -0.2738
      7 C         138.8155  139.4820  167.2347 C.3     1  UNL1        0.0721
      8 C         138.6345  138.8626  165.8806 C.3     1  UNL1        0.0178
      9 O         142.2818  137.7378  162.2127 O.2     1  UNL1       -0.2749
     10 C         141.3026  138.8536  162.4273 C.2     1  UNL1        0.2252
     11 N         141.3992  140.1047  161.6054 N.am    1  UNL1       -0.2767
     12 C         140.4200  141.2205  161.8201 C.3     1  UNL1        0.1107
     13 C         140.5165  142.4716  160.9982 C.3     1  UNL1        0.0939
     14 N         141.5923  142.6068  159.9617 N.3     1  UNL1       -0.2711
     15 C         142.5715  141.4910  159.7470 C.3     1  UNL1        0.0939
     16 C         142.4749  140.2399  160.5689 C.3     1  UNL1        0.1107
     17 C         141.6889  143.8579  159.1398 C.3     1  UNL1        0.0576
     18 C         142.5210  144.2982  157.9720 C.3     1  UNL1        0.0160
     19 C         141.8255  145.6272  157.9775 C.3     1  UNL1        0.0028
     20 C         140.9933  145.1869  159.1452 C.3     1  UNL1        0.0160
     21 C         140.2535  140.8561  168.9063 C.3     1  UNL1        0.0625
     22 C         140.0095  142.3235  169.0985 C.3     1  UNL1        0.0481
     23 C         140.1906  142.9430  170.4526 C.3     1  UNL1        0.1435
     24 O         140.6157  142.0949  171.6145 O.3     1  UNL1       -0.3537
     25 C         140.8597  140.6274  171.4223 C.3     1  UNL1        0.1435
     26 C         140.6786  140.0080  170.0682 C.3     1  UNL1        0.0481
@<TRIPOS>BOND
     1     9    10    2
     2    10     1    1
     3     1     2    1
     4     2     3    1
     5     3     4    1
     6     4     5    1
     7     5     6    1
     8     6    21    1
     9    21    22    1
    10    22    23    1
    11    23    24    1
    12    24    25    1
    13    25    26    1
    14     6     7    1
    15     7     8    1
    16    10    11   am
    17    11    12    1
    18    12    13    1
    19    13    14    1
    20    14    17    1
    21    17    18    1
    22    18    19    1
    23    19    20    1
    24    14    15    1
    25    15    16    1
    26     3     1    1
    27    26    21    1
    28    16    11    1
    29     8     3    1
    30    20    17    1
@<TRIPOS>MOLECULE
*****
 26 30 0 0 0
SMALL
GASTEIGER

@<TRIPOS>ATOM
      1 C         140.6552  138.2557  163.9029 C.3     1  UNL1        0.0768
      2 C         141.9775  137.6824  164.3187 C.3     1  UNL1        0.0096
      3 C         141.3931  138.8418  165.0699 C.3     1  UNL1        0.0113
      4 C         140.2923  139.8421  165.2635 C.3     1  UNL1        0.0178
      5 C         140.3809  140.8498  166.3710 C.3     1  UNL1        0.0721
      6 N         141.5704  140.8573  167.2848 N.3     1  UNL1       -0.2738
      7 C         142.6712  139.8570  167.0912 C.3     1  UNL1        0.0721
      8 C         142.5826  138.8493  165.9837 C.3     1  UNL1        0.0178
      9 O         138.3646  137.2516  163.1994 O.2     1  UNL1       -0.2749
     10 C         139.4658  138.2482  162.9891 C.2     1  UNL1        0.2252
     11 N         139.3775  139.2373  161.8648 N.am    1  UNL1       -0.2767
     12 C         140.4786  140.2339  161.6545 C.3     1  UNL1        0.1107
     13 C         140.3904  141.2230  160.5302 C.3     1  UNL1        0.0939
     14 N         139.2009  141.2156  159.6164 N.3     1  UNL1       -0.2711
     15 C         138.0997  140.2189  159.8268 C.3     1  UNL1        0.0939
     16 C         138.1880  139.2299  160.9510 C.3     1  UNL1        0.1107
     17 C         139.1126  142.2047  158.4922 C.3     1  UNL1        0.0576
     18 C         140.0318  143.2406  157.9162 C.3     1  UNL1        0.0160
     19 C         138.9876  143.6034  156.9023 C.3     1  UNL1        0.0028
     20 C         138.0684  142.5675  157.4782 C.3     1  UNL1        0.0160
     21 C         141.6590  141.8651  168.3924 C.3     1  UNL1        0.0625
     22 C         140.4877  142.7520  168.6948 C.3     1  UNL1        0.0481
     23 C         140.5763  143.7598  169.8024 C.3     1  UNL1        0.1435
     24 O         141.8362  143.8807  170.6074 O.3     1  UNL1       -0.3537
     25 C         143.0075  142.9938  170.3048 C.3     1  UNL1        0.1435
     26 C         142.9189  141.9860  169.1974 C.3     1  UNL1        0.0481
@<TRIPOS>BOND
     1     9    10    2
     2    10     1    1
     3     1     2    1
     4     2     3    1
     5     3     4    1
     6     4     5    1
     7     5     6    1
     8     6    21    1
     9    21    22    1
    10    22    23    1
    11    23    24    1
    12    24    25    1
    13    25    26    1
    14     6     7    1
    15     7     8    1
    16    10    11   am
    17    11    12    1
    18    12    13    1
    19    13    14    1
    20    14    17    1
    21    17    18    1
    22    18    19    1
    23    19    20    1
    24    14    15    1
    25    15    16    1
    26     3     1    1
    27    26    21    1
    28    16    11    1
    29     8     3    1
    30    20    17    1
@<TRIPOS>MOLECULE
*****
 26 30 0 0 0
SMALL
GASTEIGER

@<TRIPOS>ATOM
      1 C         138.3968  139.9613  163.6485 C.3     1  UNL1        0.0768
      2 C         138.4219  138.7083  164.4727 C.3     1  UNL1        0.0096
      3 C         138.9858  139.9827  165.0277 C.3     1  UNL1        0.0113
      4 C         139.2968  141.4418  164.8723 C.3     1  UNL1        0.0178
      5 C         139.9625  142.1898  165.9891 C.3     1  UNL1        0.0721
      6 N         140.3171  141.4787  167.2614 N.3     1  UNL1       -0.2738
      7 C         140.0061  140.0196  167.4168 C.3     1  UNL1        0.0721
      8 C         139.3405  139.2716  166.3000 C.3     1  UNL1        0.0178
      9 O         137.2750  141.9604  162.4257 O.2     1  UNL1       -0.2749
     10 C         138.0421  140.6724  162.3762 C.2     1  UNL1        0.2252
     11 N         138.4547  140.0953  161.0545 N.am    1  UNL1       -0.2767
     12 C         139.2218  138.8073  161.0050 C.3     1  UNL1        0.1107
     13 C         139.6343  138.2303  159.6832 C.3     1  UNL1        0.0939
     14 N         139.2796  138.9414  158.4110 N.3     1  UNL1       -0.2711
     15 C         138.5125  140.2295  158.4605 C.3     1  UNL1        0.0939
     16 C         138.1000  140.8064  159.7822 C.3     1  UNL1        0.1107
     17 C         139.6921  138.3644  157.0893 C.3     1  UNL1        0.0576
     18 C         139.1511  138.4223  155.6915 C.3     1  UNL1        0.0160
     19 C         140.2755  137.5485  155.2201 C.3     1  UNL1        0.0028
     20 C         140.8165  137.4907  156.6179 C.3     1  UNL1        0.0160
     21 C         140.9828  142.2268  168.3782 C.3     1  UNL1        0.0625
     22 C         142.3734  141.8588  168.8033 C.3     1  UNL1        0.0481
     23 C         143.0391  142.6069  169.9201 C.3     1  UNL1        0.1435
     24 O         142.3141  143.7231  170.6119 O.3     1  UNL1       -0.3537
     25 C         140.9234  144.0911  170.1868 C.3     1  UNL1        0.1435
     26 C         140.2578  143.3430  169.0700 C.3     1  UNL1        0.0481
@<TRIPOS>BOND
     1     9    10    2
     2    10     1    1
     3     1     2    1
     4     2     3    1
     5     3     4    1
     6     4     5    1
     7     5     6    1
     8     6    21    1
     9    21    22    1
    10    22    23    1
    11    23    24    1
    12    24    25    1
    13    25    26    1
    14     6     7    1
    15     7     8    1
    16    10    11   am
    17    11    12    1
    18    12    13    1
    19    13    14    1
    20    14    17    1
    21    17    18    1
    22    18    19    1
    23    19    20    1
    24    14    15    1
    25    15    16    1
    26     3     1    1
    27    26    21    1
    28    16    11    1
    29     8     3    1
    30    20    17    1
@<TRIPOS>MOLECULE
*****
 26 30 0 0 0
SMALL
GASTEIGER

@<TRIPOS>ATOM
      1 C         142.2499  138.0949  157.1309 C.3     1  UNL1        0.0768
      2 C         140.9673  137.9507  156.3667 C.3     1  UNL1        0.0096
      3 C         141.9086  136.7882  156.4783 C.3     1  UNL1        0.0113
      4 C         143.1925  136.2002  156.9839 C.3     1  UNL1        0.0178
      5 C         143.5389  134.7746  156.6716 C.3     1  UNL1        0.0721
      6 N         142.6012  133.9369  155.8536 N.3     1  UNL1       -0.2738
      7 C         141.3172  134.5248  155.3480 C.3     1  UNL1        0.0721
      8 C         140.9709  135.9505  155.6603 C.3     1  UNL1        0.0178
      9 O         144.1671  139.8427  157.2692 O.2     1  UNL1       -0.2749
     10 C         143.1876  138.9326  157.9488 C.2     1  UNL1        0.2252
     11 N         143.1456  138.8601  159.4465 N.am    1  UNL1       -0.2767
     12 C         142.1660  137.9499  160.1262 C.3     1  UNL1        0.1107
     13 C         142.1241  137.8774  161.6239 C.3     1  UNL1        0.0939
     14 N         143.0617  138.7151  162.4419 N.3     1  UNL1       -0.2711
     15 C         144.0413  139.6253  161.7621 C.3     1  UNL1        0.0939
     16 C         144.0832  139.6978  160.2645 C.3     1  UNL1        0.1107
     17 C         143.0198  138.6427  163.9395 C.3     1  UNL1        0.0576
     18 C         143.9346  139.0715  165.0482 C.3     1  UNL1        0.0160
     19 C         142.9605  138.5402  166.0575 C.3     1  UNL1        0.0028
     20 C         142.0456  138.1114  164.9489 C.3     1  UNL1        0.0160
     21 C         142.9476  132.5112  155.5412 C.3     1  UNL1        0.0625
     22 C         141.9036  131.5911  154.9814 C.3     1  UNL1        0.0481
     23 C         142.2500  130.1654  154.6691 C.3     1  UNL1        0.1435
     24 O         143.6404  129.6599  154.9166 O.3     1  UNL1       -0.3537
     25 C         144.6845  130.5801  155.4764 C.3     1  UNL1        0.1435
     26 C         144.3380  132.0057  155.7887 C.3     1  UNL1        0.0481
@<TRIPOS>BOND
     1     9    10    2
     2    10     1    1
     3     1     2    1
     4     2     3    1
     5     3     4    1
     6     4     5    1
     7     5     6    1
     8     6    21    1
     9    21    22    1
    10    22    23    1
    11    23    24    1
    12    24    25    1
    13    25    26    1
    14     6     7    1
    15     7     8    1
    16    10    11   am
    17    11    12    1
    18    12    13    1
    19    13    14    1
    20    14    17    1
    21    17    18    1
    22    18    19    1
    23    19    20    1
    24    14    15    1
    25    15    16    1
    26     3     1    1
    27    26    21    1
    28    16    11    1
    29     8     3    1
    30    20    17    1
@<TRIPOS>MOLECULE
*****
 26 30 0 0 0
SMALL
GASTEIGER

@<TRIPOS>ATOM
      1 C         141.9000  144.1207  162.6949 C.3     1  UNL1        0.0768
      2 C         140.6461  144.9356  162.8110 C.3     1  UNL1        0.0096
      3 C         141.0580  144.0289  163.9328 C.3     1  UNL1        0.0113
      4 C         142.0197  143.0350  164.5133 C.3     1  UNL1        0.0178
      5 C         141.7713  142.4586  165.8757 C.3     1  UNL1        0.0721
      6 N         140.5612  142.8762  166.6574 N.3     1  UNL1       -0.2738
      7 C         139.5994  143.8701  166.0769 C.3     1  UNL1        0.0721
      8 C         139.8478  144.4464  164.7145 C.3     1  UNL1        0.0178
      9 O         144.4077  144.4342  162.0921 O.2     1  UNL1       -0.2749
     10 C         143.1102  143.7032  161.9131 C.2     1  UNL1        0.2252
     11 N         143.0229  142.5545  160.9523 N.am    1  UNL1       -0.2767
     12 C         141.7254  141.8235  160.7733 C.3     1  UNL1        0.1107
     13 C         141.6381  140.6748  159.8125 C.3     1  UNL1        0.0939
     14 N         142.8482  140.2573  159.0307 N.3     1  UNL1       -0.2711
     15 C         144.1458  140.9885  159.2097 C.3     1  UNL1        0.0939
     16 C         144.2330  142.1370  160.1705 C.3     1  UNL1        0.1107
     17 C         142.7609  139.1088  158.0699 C.3     1  UNL1        0.0576
     18 C         142.7984  138.9697  156.5768 C.3     1  UNL1        0.0160
     19 C         142.6375  137.4844  156.7112 C.3     1  UNL1        0.0028
     20 C         142.6000  137.6235  158.2042 C.3     1  UNL1        0.0160
     21 C         140.3128  142.2997  168.0199 C.3     1  UNL1        0.0625
     22 C         140.0272  140.8353  168.1739 C.3     1  UNL1        0.0481
     23 C         139.7789  140.2588  169.5364 C.3     1  UNL1        0.1435
     24 O         139.8161  141.1469  170.7446 O.3     1  UNL1       -0.3537
     25 C         140.1016  142.6114  170.5905 C.3     1  UNL1        0.1435
     26 C         140.3500  143.1878  169.2281 C.3     1  UNL1        0.0481
@<TRIPOS>BOND
     1     9    10    2
     2    10     1    1
     3     1     2    1
     4     2     3    1
     5     3     4    1
     6     4     5    1
     7     5     6    1
     8     6    21    1
     9    21    22    1
    10    22    23    1
    11    23    24    1
    12    24    25    1
    13    25    26    1
    14     6     7    1
    15     7     8    1
    16    10    11   am
    17    11    12    1
    18    12    13    1
    19    13    14    1
    20    14    17    1
    21    17    18    1
    22    18    19    1
    23    19    20    1
    24    14    15    1
    25    15    16    1
    26     3     1    1
    27    26    21    1
    28    16    11    1
    29     8     3    1
    30    20    17    1
