@<TRIPOS>MOLECULE
*****
 30 32 0 0 0
SMALL
GASTEIGER

@<TRIPOS>ATOM
      1 N         141.4022  144.3707  161.8053 N.3     1  UNL1       -0.2700
      2 C         140.4820  145.3035  159.5618 C.3     1  UNL1        0.0173
      3 C         140.5128  145.3224  161.0614 C.3     1  UNL1        0.0579
      4 C         139.6543  146.2929  161.8171 C.3     1  UNL1        0.0173
      5 C         141.7246  143.0294  161.2162 C.3     1  UNL1        0.0771
      6 C         140.6313  142.0279  160.9886 C.3     1  UNL1        0.0453
      7 C         139.5693  141.8274  162.0287 C.2     1  UNL1       -0.0005
      8 C         138.2471  142.5335  162.0862 C.2     1  UNL1        0.0942
      9 N         137.5037  142.0281  163.2870 N.2     1  UNL1       -0.2482
     10 C         138.3664  141.0097  163.9716 C.2     1  UNL1        0.0631
     11 C         138.1544  140.1794  165.2027 C.3     1  UNL1        0.0717
     12 C         139.2190  139.2250  165.6560 C.2     1  UNL1       -0.0198
     13 C         140.4957  139.1009  164.8783 C.2     1  UNL1       -0.0042
     14 C         140.7077  139.9313  163.6473 C.2     1  UNL1        0.0006
     15 C         139.6430  140.8857  163.1939 C.2     1  UNL1        0.0114
     16 C         141.9692  144.7603  163.1382 C.3     1  UNL1        0.0991
     17 C         141.6507  143.9446  164.3560 C.ar    1  UNL1       -0.0061
     18 C         142.6840  143.0230  164.9329 C.ar    1  UNL1       -0.0029
     19 C         142.3654  142.2074  166.1508 C.ar    1  UNL1       -0.0003
     20 C         141.0134  142.3133  166.7918 C.ar    1  UNL1        0.0001
     21 C         139.9800  143.2349  166.2149 C.ar    1  UNL1       -0.0003
     22 C         140.2986  144.0506  164.9971 C.ar    1  UNL1       -0.0029
     23 C         140.6948  141.4976  168.0096 C.2     1  UNL1        0.0047
     24 C         140.7287  142.1332  169.3679 C.2     1  UNL1        0.0598
     25 C         140.4101  141.3176  170.5858 C.2     1  UNL1        0.2679
     26 O         140.5066  141.9361  171.9489 O.2     1  UNL1       -0.2681
     27 N         139.9951  139.8835  170.4407 N.am    1  UNL1       -0.1934
     28 O         139.6766  139.0679  171.6586 O.3     1  UNL1       -0.2949
     29 H         139.9318  139.4774  169.5460 H       1  UNL1        0.1825
     30 H         139.7879  139.6147  172.4521 H       1  UNL1        0.2414
@<TRIPOS>BOND
     1     2     3    1
     2     3     4    1
     3     3     1    1
     4     1     5    1
     5     5     6    1
     6     6     7    1
     7     7     8    2
     8     8     9    1
     9     9    10    2
    10    10    11    1
    11    11    12    1
    12    12    13    2
    13    13    14    1
    14    14    15    2
    15     1    16    1
    16    16    17    1
    17    17    18   ar
    18    18    19   ar
    19    19    20   ar
    20    20    23    1
    21    23    24    2
    22    24    25    1
    23    25    26    2
    24    25    27   am
    25    27    28    1
    26    20    21   ar
    27    21    22   ar
    28    15     7    1
    29    22    17   ar
    30    15    10    1
    31    27    29    1
    32    28    30    1
@<TRIPOS>MOLECULE
*****
 30 32 0 0 0
SMALL
GASTEIGER

@<TRIPOS>ATOM
      1 N         141.0546  137.6833  162.5194 N.3     1  UNL1       -0.2700
      2 C         139.7345  138.3021  160.3690 C.3     1  UNL1        0.0173
      3 C         139.7578  138.0101  161.8401 C.3     1  UNL1        0.0579
      4 C         138.4843  138.0448  162.6318 C.3     1  UNL1        0.0173
      5 C         142.3487  137.8280  161.7748 C.3     1  UNL1        0.0771
      6 C         142.8536  139.1917  161.4065 C.3     1  UNL1        0.0453
      7 C         143.2774  140.1498  162.4801 C.2     1  UNL1       -0.0005
      8 C         144.6640  140.2976  163.0327 C.2     1  UNL1        0.0942
      9 N         144.6325  141.3674  164.0836 N.2     1  UNL1       -0.2482
     10 C         143.2264  141.8808  164.1805 C.2     1  UNL1        0.0631
     11 C         142.6004  142.9363  165.0431 C.3     1  UNL1        0.0717
     12 C         141.1370  143.2392  164.9146 C.2     1  UNL1       -0.0198
     13 C         140.2995  142.4866  163.9235 C.2     1  UNL1       -0.0042
     14 C         140.9254  141.4312  163.0609 C.2     1  UNL1        0.0006
     15 C         142.3889  141.1282  163.1894 C.2     1  UNL1        0.0114
     16 C         141.0574  137.2119  163.9434 C.3     1  UNL1        0.0991
     17 C         141.4096  138.1638  165.0478 C.ar    1  UNL1       -0.0061
     18 C         142.8213  138.2419  165.5489 C.ar    1  UNL1       -0.0029
     19 C         143.1734  139.1939  166.6534 C.ar    1  UNL1       -0.0003
     20 C         142.1139  140.0677  167.2568 C.ar    1  UNL1        0.0001
     21 C         140.7023  139.9895  166.7557 C.ar    1  UNL1       -0.0003
     22 C         140.3501  139.0376  165.6512 C.ar    1  UNL1       -0.0029
     23 C         142.4661  141.0196  168.3612 C.2     1  UNL1        0.0047
     24 C         141.5783  142.1933  168.6512 C.2     1  UNL1        0.0598
     25 C         141.9304  143.1453  169.7557 C.2     1  UNL1        0.2679
     26 O         140.9022  144.1071  170.2730 O.2     1  UNL1       -0.2681
     27 N         143.3107  143.1355  170.3428 N.am    1  UNL1       -0.1934
     28 O         143.6627  144.0875  171.4472 O.3     1  UNL1       -0.2949
     29 H         143.9856  142.5042  170.0033 H       1  UNL1        0.1825
     30 H         142.8908  144.6347  171.6607 H       1  UNL1        0.2414
@<TRIPOS>BOND
     1     2     3    1
     2     3     4    1
     3     3     1    1
     4     1     5    1
     5     5     6    1
     6     6     7    1
     7     7     8    2
     8     8     9    1
     9     9    10    2
    10    10    11    1
    11    11    12    1
    12    12    13    2
    13    13    14    1
    14    14    15    2
    15     1    16    1
    16    16    17    1
    17    17    18   ar
    18    18    19   ar
    19    19    20   ar
    20    20    23    1
    21    23    24    2
    22    24    25    1
    23    25    26    2
    24    25    27   am
    25    27    28    1
    26    20    21   ar
    27    21    22   ar
    28    15     7    1
    29    22    17   ar
    30    15    10    1
    31    27    29    1
    32    28    30    1
@<TRIPOS>MOLECULE
*****
 30 32 0 0 0
SMALL
GASTEIGER

@<TRIPOS>ATOM
      1 N         143.8458  143.2437  162.6860 N.3     1  UNL1       -0.2700
      2 C         142.0036  141.8383  161.5106 C.3     1  UNL1        0.0173
      3 C         143.3009  142.5889  161.4513 C.3     1  UNL1        0.0579
      4 C         144.0534  142.6849  160.1573 C.3     1  UNL1        0.0173
      5 C         143.6817  144.7212  162.8861 C.3     1  UNL1        0.0771
      6 C         142.5515  145.2439  163.7224 C.3     1  UNL1        0.0453
      7 C         141.1343  145.0633  163.2652 C.2     1  UNL1       -0.0005
      8 C         140.4464  145.8546  162.1925 C.2     1  UNL1        0.0942
      9 N         139.0432  145.3401  162.0648 N.2     1  UNL1       -0.2482
     10 C         138.8639  144.2309  163.0585 C.2     1  UNL1        0.0631
     11 C         137.6907  143.3545  163.3836 C.3     1  UNL1        0.0717
     12 C         137.8100  142.3071  164.4507 C.2     1  UNL1       -0.0198
     13 C         139.1024  142.1361  165.1926 C.2     1  UNL1       -0.0042
     14 C         140.2755  143.0124  164.8675 C.2     1  UNL1        0.0006
     15 C         140.1563  144.0598  163.8004 C.2     1  UNL1        0.0114
     16 C         144.5547  142.4209  163.7206 C.3     1  UNL1        0.0991
     17 C         143.7954  141.8735  164.8927 C.ar    1  UNL1       -0.0061
     18 C         143.1469  140.5240  164.8022 C.ar    1  UNL1       -0.0029
     19 C         142.3876  139.9767  165.9744 C.ar    1  UNL1       -0.0003
     20 C         142.2769  140.7787  167.2371 C.ar    1  UNL1        0.0001
     21 C         142.9255  142.1282  167.3276 C.ar    1  UNL1       -0.0003
     22 C         143.6848  142.6756  166.1555 C.ar    1  UNL1       -0.0029
     23 C         141.5177  140.2313  168.4092 C.2     1  UNL1        0.0047
     24 C         140.2452  140.8903  168.8524 C.2     1  UNL1        0.0598
     25 C         139.4858  140.3429  170.0245 C.2     1  UNL1        0.2679
     26 O         140.0804  140.4086  171.4001 O.2     1  UNL1       -0.2681
     27 N         138.1320  139.7299  169.8211 N.am    1  UNL1       -0.1934
     28 O         137.3728  139.1826  170.9933 O.3     1  UNL1       -0.2949
     29 H         137.7418  139.6868  168.9183 H       1  UNL1        0.1825
     30 H         137.8950  139.3035  171.8017 H       1  UNL1        0.2414
@<TRIPOS>BOND
     1     2     3    1
     2     3     4    1
     3     3     1    1
     4     1     5    1
     5     5     6    1
     6     6     7    1
     7     7     8    2
     8     8     9    1
     9     9    10    2
    10    10    11    1
    11    11    12    1
    12    12    13    2
    13    13    14    1
    14    14    15    2
    15     1    16    1
    16    16    17    1
    17    17    18   ar
    18    18    19   ar
    19    19    20   ar
    20    20    23    1
    21    23    24    2
    22    24    25    1
    23    25    26    2
    24    25    27   am
    25    27    28    1
    26    20    21   ar
    27    21    22   ar
    28    15     7    1
    29    22    17   ar
    30    15    10    1
    31    27    29    1
    32    28    30    1
@<TRIPOS>MOLECULE
*****
 30 32 0 0 0
SMALL
GASTEIGER

@<TRIPOS>ATOM
      1 N         140.9180  137.8386  162.2280 N.3     1  UNL1       -0.2700
      2 C         143.4411  138.4375  162.3877 C.3     1  UNL1        0.0173
      3 C         142.2558  138.0131  161.5723 C.3     1  UNL1        0.0579
      4 C         142.4082  137.7632  160.1011 C.3     1  UNL1        0.0173
      5 C         139.6684  138.2378  161.5006 C.3     1  UNL1        0.0771
      6 C         139.3892  139.6863  161.2284 C.3     1  UNL1        0.0453
      7 C         138.9941  140.5980  162.3522 C.2     1  UNL1       -0.0005
      8 C         137.5965  140.8431  162.8387 C.2     1  UNL1        0.0942
      9 N         137.6659  141.8212  163.9739 N.2     1  UNL1       -0.2482
     10 C         139.1063  142.1805  164.1889 C.2     1  UNL1        0.0631
     11 C         139.7764  143.0984  165.1678 C.3     1  UNL1        0.0717
     12 C         141.2674  143.2603  165.1444 C.2     1  UNL1       -0.0198
     13 C         142.0883  142.5043  164.1421 C.2     1  UNL1       -0.0042
     14 C         141.4182  141.5864  163.1632 C.2     1  UNL1        0.0006
     15 C         139.9271  141.4245  163.1866 C.2     1  UNL1        0.0114
     16 C         140.8298  137.2650  163.6111 C.3     1  UNL1        0.0991
     17 C         140.5755  138.1671  164.7823 C.ar    1  UNL1       -0.0061
     18 C         139.1750  138.3775  165.2767 C.ar    1  UNL1       -0.0029
     19 C         138.9208  139.2796  166.4479 C.ar    1  UNL1       -0.0003
     20 C         140.0669  139.9712  167.1246 C.ar    1  UNL1        0.0001
     21 C         141.4673  139.7608  166.6302 C.ar    1  UNL1       -0.0003
     22 C         141.7217  138.8588  165.4591 C.ar    1  UNL1       -0.0029
     23 C         139.8125  140.8733  168.2958 C.2     1  UNL1        0.0047
     24 C         140.7713  141.9834  168.6095 C.2     1  UNL1        0.0598
     25 C         140.5171  142.8855  169.7806 C.2     1  UNL1        0.2679
     26 O         140.7385  142.3828  171.1764 O.2     1  UNL1       -0.2681
     27 N         140.0415  144.2902  169.5560 N.am    1  UNL1       -0.1934
     28 O         139.7872  145.1923  170.7272 O.3     1  UNL1       -0.2949
     29 H         139.8962  144.6202  168.6399 H       1  UNL1        0.1825
     30 H         139.9778  144.7153  171.5501 H       1  UNL1        0.2414
@<TRIPOS>BOND
     1     2     3    1
     2     3     4    1
     3     3     1    1
     4     1     5    1
     5     5     6    1
     6     6     7    1
     7     7     8    2
     8     8     9    1
     9     9    10    2
    10    10    11    1
    11    11    12    1
    12    12    13    2
    13    13    14    1
    14    14    15    2
    15     1    16    1
    16    16    17    1
    17    17    18   ar
    18    18    19   ar
    19    19    20   ar
    20    20    23    1
    21    23    24    2
    22    24    25    1
    23    25    26    2
    24    25    27   am
    25    27    28    1
    26    20    21   ar
    27    21    22   ar
    28    15     7    1
    29    22    17   ar
    30    15    10    1
    31    27    29    1
    32    28    30    1
@<TRIPOS>MOLECULE
*****
 30 32 0 0 0
SMALL
GASTEIGER

@<TRIPOS>ATOM
      1 N         143.9745  143.0643  162.3376 N.3     1  UNL1       -0.2700
      2 C         141.9907  144.3468  161.2561 C.3     1  UNL1        0.0173
      3 C         143.0033  143.2412  161.2083 C.3     1  UNL1        0.0579
      4 C         143.0447  142.3125  160.0310 C.3     1  UNL1        0.0173
      5 C         145.1023  142.0835  162.2102 C.3     1  UNL1        0.0771
      6 C         145.0811  140.8092  163.0013 C.3     1  UNL1        0.0453
      7 C         144.1411  139.7046  162.6187 C.2     1  UNL1       -0.0005
      8 C         144.1123  138.9882  161.3012 C.2     1  UNL1        0.0942
      9 N         143.0183  137.9633  161.3548 N.2     1  UNL1       -0.2482
     10 C         142.3711  138.0463  162.7054 C.2     1  UNL1        0.0631
     11 C         141.2395  137.2809  163.3249 C.3     1  UNL1        0.0717
     12 C         140.8019  137.5918  164.7255 C.2     1  UNL1       -0.0198
     13 C         141.4959  138.6680  165.5067 C.2     1  UNL1       -0.0042
     14 C         142.6274  139.4333  164.8873 C.2     1  UNL1        0.0006
     15 C         143.0650  139.1224  163.4866 C.2     1  UNL1        0.0114
     16 C         143.8180  143.8680  163.5943 C.3     1  UNL1        0.0991
     17 C         143.0765  143.2933  164.7647 C.ar    1  UNL1       -0.0061
     18 C         141.5839  143.1540  164.7118 C.ar    1  UNL1       -0.0029
     19 C         140.8424  142.5792  165.8822 C.ar    1  UNL1       -0.0003
     20 C         141.5934  142.1437  167.1054 C.ar    1  UNL1        0.0001
     21 C         143.0859  142.2829  167.1583 C.ar    1  UNL1       -0.0003
     22 C         143.8275  142.8577  165.9879 C.ar    1  UNL1       -0.0029
     23 C         140.8518  141.5689  168.2757 C.2     1  UNL1        0.0047
     24 C         141.5036  141.5196  169.6258 C.2     1  UNL1        0.0598
     25 C         140.7621  140.9449  170.7962 C.2     1  UNL1        0.2679
     26 O         140.5554  141.7701  172.0316 O.2     1  UNL1       -0.2681
     27 N         140.2274  139.5449  170.7312 N.am    1  UNL1       -0.1934
     28 O         139.4859  138.9702  171.9017 O.3     1  UNL1       -0.2949
     29 H         140.3631  139.0033  169.9204 H       1  UNL1        0.1825
     30 H         139.4415  139.6296  172.6117 H       1  UNL1        0.2414
@<TRIPOS>BOND
     1     2     3    1
     2     3     4    1
     3     3     1    1
     4     1     5    1
     5     5     6    1
     6     6     7    1
     7     7     8    2
     8     8     9    1
     9     9    10    2
    10    10    11    1
    11    11    12    1
    12    12    13    2
    13    13    14    1
    14    14    15    2
    15     1    16    1
    16    16    17    1
    17    17    18   ar
    18    18    19   ar
    19    19    20   ar
    20    20    23    1
    21    23    24    2
    22    24    25    1
    23    25    26    2
    24    25    27   am
    25    27    28    1
    26    20    21   ar
    27    21    22   ar
    28    15     7    1
    29    22    17   ar
    30    15    10    1
    31    27    29    1
    32    28    30    1
@<TRIPOS>MOLECULE
*****
 30 32 0 0 0
SMALL
GASTEIGER

@<TRIPOS>ATOM
      1 N         142.1101  144.1422  161.7879 N.3     1  UNL1       -0.2700
      2 C         141.1288  145.0804  159.5728 C.3     1  UNL1        0.0173
      3 C         141.1002  144.9872  161.0696 C.3     1  UNL1        0.0579
      4 C         140.0618  145.7392  161.8481 C.3     1  UNL1        0.0173
      5 C         142.6109  142.8754  161.1598 C.3     1  UNL1        0.0771
      6 C         141.7025  141.6878  161.0394 C.3     1  UNL1        0.0453
      7 C         141.3448  140.8905  162.2586 C.2     1  UNL1       -0.0005
      8 C         139.9563  140.6011  162.7468 C.2     1  UNL1        0.0942
      9 N         140.0663  139.7744  163.9936 N.2     1  UNL1       -0.2482
     10 C         141.5228  139.5529  164.2760 C.2     1  UNL1        0.0631
     11 C         142.2315  138.8122  165.3709 C.3     1  UNL1        0.0717
     12 C         143.7304  138.7613  165.3936 C.2     1  UNL1       -0.0198
     13 C         144.5206  139.4512  164.3213 C.2     1  UNL1       -0.0042
     14 C         143.8119  140.1918  163.2264 C.2     1  UNL1        0.0006
     15 C         142.3129  140.2427  163.2037 C.2     1  UNL1        0.0114
     16 C         142.6192  144.5638  163.1344 C.3     1  UNL1        0.0991
     17 C         142.2492  143.7763  164.3563 C.ar    1  UNL1       -0.0061
     18 C         143.3209  143.1440  165.1940 C.ar    1  UNL1       -0.0029
     19 C         142.9508  142.3565  166.4159 C.ar    1  UNL1       -0.0003
     20 C         141.5091  142.2014  166.8001 C.ar    1  UNL1        0.0001
     21 C         140.4375  142.8337  165.9624 C.ar    1  UNL1       -0.0003
     22 C         140.8075  143.6211  164.7405 C.ar    1  UNL1       -0.0029
     23 C         141.1391  141.4139  168.0220 C.2     1  UNL1        0.0047
     24 C         140.8866  142.1199  169.3211 C.2     1  UNL1        0.0598
     25 C         140.5166  141.3325  170.5430 C.2     1  UNL1        0.2679
     26 O         140.5580  141.9819  171.8946 O.2     1  UNL1       -0.2681
     27 N         140.1052  139.8959  170.4135 N.am    1  UNL1       -0.1934
     28 O         139.7352  139.1086  171.6355 O.3     1  UNL1       -0.2949
     29 H         140.0781  139.4697  169.5265 H       1  UNL1        0.1825
     30 H         139.8149  139.6731  172.4203 H       1  UNL1        0.2414
@<TRIPOS>BOND
     1     2     3    1
     2     3     4    1
     3     3     1    1
     4     1     5    1
     5     5     6    1
     6     6     7    1
     7     7     8    2
     8     8     9    1
     9     9    10    2
    10    10    11    1
    11    11    12    1
    12    12    13    2
    13    13    14    1
    14    14    15    2
    15     1    16    1
    16    16    17    1
    17    17    18   ar
    18    18    19   ar
    19    19    20   ar
    20    20    23    1
    21    23    24    2
    22    24    25    1
    23    25    26    2
    24    25    27   am
    25    27    28    1
    26    20    21   ar
    27    21    22   ar
    28    15     7    1
    29    22    17   ar
    30    15    10    1
    31    27    29    1
    32    28    30    1
@<TRIPOS>MOLECULE
*****
 30 32 0 0 0
SMALL
GASTEIGER

@<TRIPOS>ATOM
      1 N         138.2259  141.3212  162.0991 N.3     1  UNL1       -0.2700
      2 C         137.9644  138.7364  162.1260 C.3     1  UNL1        0.0173
      3 C         137.9917  140.0315  161.3697 C.3     1  UNL1        0.0579
      4 C         137.7848  140.0370  159.8841 C.3     1  UNL1        0.0173
      5 C         139.0734  142.3913  161.4774 C.3     1  UNL1        0.0771
      6 C         140.5376  142.1536  161.2546 C.3     1  UNL1        0.0453
      7 C         141.4879  142.1876  162.4147 C.2     1  UNL1       -0.0005
      8 C         142.2578  143.3844  162.8890 C.2     1  UNL1        0.0942
      9 N         143.0809  142.9672  164.0716 N.2     1  UNL1       -0.2482
     10 C         142.8197  141.5125  164.3282 C.2     1  UNL1        0.0631
     11 C         143.3511  140.5645  165.3620 C.3     1  UNL1        0.0717
     12 C         142.8980  139.1346  165.3718 C.2     1  UNL1       -0.0198
     13 C         141.9135  138.6528  164.3478 C.2     1  UNL1       -0.0042
     14 C         141.3821  139.6009  163.3140 C.2     1  UNL1        0.0006
     15 C         141.8352  141.0307  163.3042 C.2     1  UNL1        0.0114
     16 C         137.6126  141.5408  163.4503 C.3     1  UNL1        0.0991
     17 C         138.4758  141.5271  164.6769 C.ar    1  UNL1       -0.0061
     18 C         139.1829  142.7770  165.1104 C.ar    1  UNL1       -0.0029
     19 C         140.0461  142.7632  166.3370 C.ar    1  UNL1       -0.0003
     20 C         140.2024  141.4997  167.1301 C.ar    1  UNL1        0.0001
     21 C         139.4954  140.2498  166.6966 C.ar    1  UNL1       -0.0003
     22 C         138.6321  140.2635  165.4700 C.ar    1  UNL1       -0.0029
     23 C         141.0657  141.4860  168.3567 C.2     1  UNL1        0.0047
     24 C         141.1650  140.2428  169.1900 C.2     1  UNL1        0.0598
     25 C         142.0283  140.2291  170.4167 C.2     1  UNL1        0.2679
     26 O         141.6896  141.1107  171.5820 O.2     1  UNL1       -0.2681
     27 N         143.2302  139.3337  170.4781 N.am    1  UNL1       -0.1934
     28 O         144.0934  139.3200  171.7047 O.3     1  UNL1       -0.2949
     29 H         143.4525  138.7550  169.7133 H       1  UNL1        0.1825
     30 H         143.7372  139.9426  172.3577 H       1  UNL1        0.2414
@<TRIPOS>BOND
     1     2     3    1
     2     3     4    1
     3     3     1    1
     4     1     5    1
     5     5     6    1
     6     6     7    1
     7     7     8    2
     8     8     9    1
     9     9    10    2
    10    10    11    1
    11    11    12    1
    12    12    13    2
    13    13    14    1
    14    14    15    2
    15     1    16    1
    16    16    17    1
    17    17    18   ar
    18    18    19   ar
    19    19    20   ar
    20    20    23    1
    21    23    24    2
    22    24    25    1
    23    25    26    2
    24    25    27   am
    25    27    28    1
    26    20    21   ar
    27    21    22   ar
    28    15     7    1
    29    22    17   ar
    30    15    10    1
    31    27    29    1
    32    28    30    1
@<TRIPOS>MOLECULE
*****
 30 32 0 0 0
SMALL
GASTEIGER

@<TRIPOS>ATOM
      1 N         144.1427  140.8634  161.6999 N.3     1  UNL1       -0.2700
      2 C         143.0069  143.1954  161.5516 C.3     1  UNL1        0.0173
      3 C         143.9725  142.1838  161.0089 C.3     1  UNL1        0.0579
      4 C         144.7680  142.4928  159.7753 C.3     1  UNL1        0.0173
      5 C         143.5286  139.6262  161.1149 C.3     1  UNL1        0.0771
      6 C         142.0407  139.4386  161.1502 C.3     1  UNL1        0.0453
      7 C         141.3822  138.8963  162.3841 C.2     1  UNL1       -0.0005
      8 C         141.3244  137.4537  162.7910 C.2     1  UNL1        0.0942
      9 N         140.5724  137.3673  164.0860 N.2     1  UNL1       -0.2482
     10 C         140.1655  138.7564  164.4794 C.2     1  UNL1        0.0631
     11 C         139.4039  139.2829  165.6595 C.3     1  UNL1        0.0717
     12 C         139.1428  140.7544  165.7878 C.2     1  UNL1       -0.0198
     13 C         139.6433  141.6994  164.7359 C.2     1  UNL1       -0.0042
     14 C         140.4049  141.1729  163.5558 C.2     1  UNL1        0.0006
     15 C         140.6660  139.7014  163.4275 C.2     1  UNL1        0.0114
     16 C         144.9269  140.7801  162.9758 C.3     1  UNL1        0.0991
     17 C         144.2245  140.4969  164.2706 C.ar    1  UNL1       -0.0061
     18 C         144.1107  139.0868  164.7694 C.ar    1  UNL1       -0.0029
     19 C         143.4083  138.8037  166.0642 C.ar    1  UNL1       -0.0003
     20 C         142.8197  139.9306  166.8602 C.ar    1  UNL1        0.0001
     21 C         142.9334  141.3407  166.3614 C.ar    1  UNL1       -0.0003
     22 C         143.6358  141.6238  165.0666 C.ar    1  UNL1       -0.0029
     23 C         142.1173  139.6474  168.1550 C.2     1  UNL1        0.0047
     24 C         142.0019  140.7211  169.1960 C.2     1  UNL1        0.0598
     25 C         141.2996  140.4380  170.4909 C.2     1  UNL1        0.2679
     26 O         141.6280  141.2424  171.7136 O.2     1  UNL1       -0.2681
     27 N         140.2688  139.3507  170.5630 N.am    1  UNL1       -0.1934
     28 O         139.5665  139.0677  171.8578 O.3     1  UNL1       -0.2949
     29 H         140.0533  138.8228  169.7604 H       1  UNL1        0.1825
     30 H         139.8936  139.6725  172.5420 H       1  UNL1        0.2414
@<TRIPOS>BOND
     1     2     3    1
     2     3     4    1
     3     3     1    1
     4     1     5    1
     5     5     6    1
     6     6     7    1
     7     7     8    2
     8     8     9    1
     9     9    10    2
    10    10    11    1
    11    11    12    1
    12    12    13    2
    13    13    14    1
    14    14    15    2
    15     1    16    1
    16    16    17    1
    17    17    18   ar
    18    18    19   ar
    19    19    20   ar
    20    20    23    1
    21    23    24    2
    22    24    25    1
    23    25    26    2
    24    25    27   am
    25    27    28    1
    26    20    21   ar
    27    21    22   ar
    28    15     7    1
    29    22    17   ar
    30    15    10    1
    31    27    29    1
    32    28    30    1
@<TRIPOS>MOLECULE
*****
 30 32 0 0 0
SMALL
GASTEIGER

@<TRIPOS>ATOM
      1 N         143.8369  140.4567  162.1991 N.3     1  UNL1       -0.2700
      2 C         143.7656  139.6497  159.7305 C.3     1  UNL1        0.0173
      3 C         143.7776  139.3409  161.1983 C.3     1  UNL1        0.0579
      4 C         143.7303  137.9163  161.6655 C.3     1  UNL1        0.0173
      5 C         143.1537  141.7605  161.9100 C.3     1  UNL1        0.0771
      6 C         141.6562  141.8261  161.8532 C.3     1  UNL1        0.0453
      7 C         140.8538  141.7558  163.1186 C.2     1  UNL1       -0.0005
      8 C         140.3942  142.9256  163.9373 C.2     1  UNL1        0.0942
      9 N         139.6265  142.3961  165.1121 N.2     1  UNL1       -0.2482
     10 C         139.6116  140.8990  165.0195 C.2     1  UNL1        0.0631
     11 C         139.0053  139.8451  165.8979 C.3     1  UNL1        0.0717
     12 C         139.1576  138.3954  165.5441 C.2     1  UNL1       -0.0198
     13 C         139.9161  137.9996  164.3120 C.2     1  UNL1       -0.0042
     14 C         140.5223  139.0536  163.4337 C.2     1  UNL1        0.0006
     15 C         140.3701  140.5033  163.7874 C.2     1  UNL1        0.0114
     16 C         144.5793  140.2689  163.4888 C.3     1  UNL1        0.0991
     17 C         143.8741  140.4737  164.7967 C.ar    1  UNL1       -0.0061
     18 C         143.3477  139.2932  165.5579 C.ar    1  UNL1       -0.0029
     19 C         142.6424  139.4982  166.8658 C.ar    1  UNL1       -0.0003
     20 C         142.4637  140.8834  167.4127 C.ar    1  UNL1        0.0001
     21 C         142.9901  142.0639  166.6515 C.ar    1  UNL1       -0.0003
     22 C         143.6954  141.8591  165.3436 C.ar    1  UNL1       -0.0029
     23 C         141.7585  141.0883  168.7206 C.2     1  UNL1        0.0047
     24 C         141.4806  142.4775  169.2132 C.2     1  UNL1        0.0598
     25 C         140.7753  142.6824  170.5212 C.2     1  UNL1        0.2679
     26 O         141.3634  142.1287  171.7851 O.2     1  UNL1       -0.2681
     27 N         139.4821  143.4410  170.5653 N.am    1  UNL1       -0.1934
     28 O         138.7769  143.6459  171.8733 O.3     1  UNL1       -0.2949
     29 H         139.0960  143.8045  169.7357 H       1  UNL1        0.1825
     30 H         139.2872  143.2281  172.5846 H       1  UNL1        0.2414
@<TRIPOS>BOND
     1     2     3    1
     2     3     4    1
     3     3     1    1
     4     1     5    1
     5     5     6    1
     6     6     7    1
     7     7     8    2
     8     8     9    1
     9     9    10    2
    10    10    11    1
    11    11    12    1
    12    12    13    2
    13    13    14    1
    14    14    15    2
    15     1    16    1
    16    16    17    1
    17    17    18   ar
    18    18    19   ar
    19    19    20   ar
    20    20    23    1
    21    23    24    2
    22    24    25    1
    23    25    26    2
    24    25    27   am
    25    27    28    1
    26    20    21   ar
    27    21    22   ar
    28    15     7    1
    29    22    17   ar
    30    15    10    1
    31    27    29    1
    32    28    30    1
