@<TRIPOS>MOLECULE
*****
 45 51 0 0 0
SMALL
GASTEIGER

@<TRIPOS>ATOM
      1 C         137.8550  143.0624  162.8145 C.3     1  UNL1        0.0932
      2 C         138.2339  142.9611  161.3667 C.3     1  UNL1        0.0286
      3 C         138.3274  141.6166  160.7082 C.3     1  UNL1        0.0193
      4 C         138.0420  140.3734  161.4975 C.3     1  UNL1        0.0700
      5 C         137.6631  140.4748  162.9454 C.3     1  UNL1        0.0193
      6 C         137.5696  141.8193  163.6038 C.3     1  UNL1        0.0286
      7 C         137.9779  141.0879  161.9018 C.3     1  UNL1        0.1562
      8 O         137.8934  142.3036  162.4971 O.3     1  UNL1       -0.3572
      9 N         138.1355  139.0289  160.8391 N.3     1  UNL1       -0.2926
     10 H         137.6290  139.0975  159.9564 H       1  UNL1        0.1236
     11 C         139.4785  138.4403  160.5231 C.3     1  UNL1        0.1152
     12 C         140.5862  138.5149  161.5319 C.ar    1  UNL1        0.0765
     13 C         140.5925  137.5849  162.7089 C.ar    1  UNL1        0.0193
     14 C         141.7001  137.6594  163.7176 C.ar    1  UNL1        0.0411
     15 C         142.8014  138.6638  163.5494 C.ar    1  UNL1        0.1708
     16 C         142.7951  139.5937  162.3724 C.ar    1  UNL1        0.1682
     17 N         141.6875  139.5192  161.3637 N.ar    1  UNL1       -0.2304
     18 N         143.8965  140.5981  162.2042 N.am    1  UNL1       -0.2639
     19 C         145.0041  140.6726  163.2130 C.2     1  UNL1        0.2718
     20 O         146.1054  141.6770  163.0448 O.2     1  UNL1       -0.2707
     21 C         145.0104  139.7427  164.3899 C.3     1  UNL1        0.2898
     22 O         143.9091  138.7383  164.5582 O.3     1  UNL1       -0.4628
     23 H         143.8923  141.2084  161.4318 H       1  UNL1        0.1565
     24 C         137.7615  144.4070  163.4730 C.3     1  UNL1        0.0320
     25 C         138.8173  144.8404  164.4463 C.3     1  UNL1        0.0327
     26 C         140.6771  141.9803  167.3808 C.ar    1  UNL1        0.2250
     27 C         142.0969  141.5334  167.1955 C.ar    1  UNL1        0.0593
     28 C         142.8968  142.0399  166.0321 C.ar    1  UNL1        0.0254
     29 C         142.2769  142.9932  165.0539 C.ar    1  UNL1        0.0990
     30 N         143.0769  143.4997  163.8904 N.ar    1  UNL1       -0.2400
     31 C         142.4569  144.4531  162.9123 C.ar    1  UNL1        0.1281
     32 C         141.0370  144.9000  163.0976 C.ar    1  UNL1        0.1566
     33 F         140.4171  145.8533  162.1195 F       1  UNL1       -0.2028
     34 C         140.2371  144.3935  164.2610 C.ar    1  UNL1        0.0261
     35 C         140.8571  143.4401  165.2392 C.ar    1  UNL1        0.1002
     36 N         140.0572  142.9336  166.4026 N.ar    1  UNL1       -0.2104
     37 O         139.8771  141.4738  168.5443 O.3     1  UNL1       -0.4575
     38 C         139.4261  140.0436  168.5785 C.3     1  UNL1        0.2378
     39 N         136.7668  137.7699  167.6447 N.3     1  UNL1       -0.3181
     40 C         137.9132  138.4145  166.9235 C.3     1  UNL1        0.1121
     41 C         138.4330  138.3842  165.5168 C.3     1  UNL1        0.1602
     42 O         139.5346  139.3261  165.9036 O.3     1  UNL1       -0.3495
     43 C         139.0148  139.3563  167.3103 C.3     1  UNL1        0.1753
     44 H         136.2432  137.1832  166.9951 H       1  UNL1        0.1190
     45 H         136.1527  138.4921  168.0212 H       1  UNL1        0.1190
@<TRIPOS>BOND
     1    40    39    1
     2    40    41    1
     3    41    42    1
     4    42    43    1
     5    43    38    1
     6    38    37    1
     7    37    26    1
     8    26    27   ar
     9    27    28   ar
    10    28    29   ar
    11    29    30   ar
    12    30    31   ar
    13    31    32   ar
    14    32    33    1
    15    32    34   ar
    16    34    25    1
    17    25    24    1
    18    24     1    1
    19     1     2    1
    20     2     3    1
    21     3     4    1
    22     4     9    1
    23     9    11    1
    24    11    12    1
    25    12    13   ar
    26    13    14   ar
    27    14    15   ar
    28    15    16   ar
    29    16    17   ar
    30    16    18    1
    31    18    19   am
    32    19    20    2
    33    19    21    1
    34    21    22    1
    35     4     5    1
    36     5     6    1
    37     4     7    1
    38     7     8    1
    39    34    35   ar
    40    35    36   ar
    41    43    40    1
    42    36    26   ar
    43    35    29   ar
    44     6     1    1
    45     8     1    1
    46    17    12   ar
    47    22    15    1
    48    39    44    1
    49    39    45    1
    50     9    10    1
    51    18    23    1
@<TRIPOS>MOLECULE
*****
 45 51 0 0 0
SMALL
GASTEIGER

@<TRIPOS>ATOM
      1 C         141.9105  138.2009  164.2927 C.3     1  UNL1        0.0932
      2 C         142.8619  138.7360  165.3215 C.3     1  UNL1        0.0286
      3 C         144.0843  139.4917  164.8915 C.3     1  UNL1        0.0193
      4 C         144.3552  139.7123  163.4328 C.3     1  UNL1        0.0700
      5 C         143.4037  139.1771  162.4040 C.3     1  UNL1        0.0193
      6 C         142.1814  138.4214  162.8340 C.3     1  UNL1        0.0286
      7 C         143.6722  139.2921  163.6200 C.3     1  UNL1        0.1562
      8 O         142.5670  138.6088  164.0089 O.3     1  UNL1       -0.3572
      9 N         145.5775  140.4679  163.0028 N.3     1  UNL1       -0.2926
     10 H         145.6331  140.3849  161.9877 H       1  UNL1        0.1236
     11 C         145.7095  141.9267  163.3257 C.3     1  UNL1        0.1152
     12 C         144.5210  142.8333  163.2004 C.ar    1  UNL1        0.0765
     13 C         143.9323  143.4715  164.4236 C.ar    1  UNL1        0.0193
     14 C         142.7438  144.3780  164.2983 C.ar    1  UNL1        0.0411
     15 C         142.1440  144.6462  162.9499 C.ar    1  UNL1        0.1708
     16 C         142.7327  144.0080  161.7268 C.ar    1  UNL1        0.1682
     17 N         143.9212  143.1015  161.8520 N.ar    1  UNL1       -0.2304
     18 N         142.1328  144.2763  160.3783 N.am    1  UNL1       -0.2639
     19 C         140.9443  145.1828  160.2530 C.2     1  UNL1        0.2718
     20 O         140.3445  145.4510  158.9046 O.2     1  UNL1       -0.2707
     21 C         140.3557  145.8210  161.4762 C.3     1  UNL1        0.2898
     22 O         140.9554  145.5528  162.8246 O.3     1  UNL1       -0.4628
     23 H         142.5192  143.8574  159.5755 H       1  UNL1        0.1565
     24 C         140.6882  137.4452  164.7227 C.3     1  UNL1        0.0320
     25 C         139.4394  138.1882  165.0951 C.3     1  UNL1        0.0327
     26 C         139.9416  142.4999  166.2812 C.ar    1  UNL1        0.2250
     27 C         139.4224  143.5885  165.3894 C.ar    1  UNL1        0.0593
     28 C         138.7359  143.2398  164.1021 C.ar    1  UNL1        0.0254
     29 C         138.5685  141.8026  163.7067 C.ar    1  UNL1        0.0990
     30 N         137.8819  141.4539  162.4194 N.ar    1  UNL1       -0.2400
     31 C         137.7145  140.0167  162.0240 C.ar    1  UNL1        0.1281
     32 C         138.2337  138.9281  162.9160 C.ar    1  UNL1        0.1566
     33 F         138.0663  137.4909  162.5206 F       1  UNL1       -0.2028
     34 C         138.9203  139.2768  164.2032 C.ar    1  UNL1        0.0261
     35 C         139.0877  140.7140  164.5986 C.ar    1  UNL1        0.1002
     36 N         139.7742  141.0627  165.8858 N.ar    1  UNL1       -0.2104
     37 O         140.6282  142.8486  167.5685 O.3     1  UNL1       -0.4575
     38 C         141.9574  142.2372  167.8991 C.3     1  UNL1        0.2378
     39 N         139.5544  139.7464  168.9647 N.3     1  UNL1       -0.3181
     40 C         141.0275  139.9510  169.1603 C.3     1  UNL1        0.1121
     41 C         142.1153  139.2086  169.8782 C.3     1  UNL1        0.1602
     42 O         143.1106  140.2403  169.4368 O.3     1  UNL1       -0.3495
     43 C         142.0228  140.9827  168.7189 C.3     1  UNL1        0.1753
     44 H         139.2625  138.8958  169.4460 H       1  UNL1        0.1190
     45 H         139.3525  139.6599  167.9687 H       1  UNL1        0.1190
@<TRIPOS>BOND
     1    40    39    1
     2    40    41    1
     3    41    42    1
     4    42    43    1
     5    43    38    1
     6    38    37    1
     7    37    26    1
     8    26    27   ar
     9    27    28   ar
    10    28    29   ar
    11    29    30   ar
    12    30    31   ar
    13    31    32   ar
    14    32    33    1
    15    32    34   ar
    16    34    25    1
    17    25    24    1
    18    24     1    1
    19     1     2    1
    20     2     3    1
    21     3     4    1
    22     4     9    1
    23     9    11    1
    24    11    12    1
    25    12    13   ar
    26    13    14   ar
    27    14    15   ar
    28    15    16   ar
    29    16    17   ar
    30    16    18    1
    31    18    19   am
    32    19    20    2
    33    19    21    1
    34    21    22    1
    35     4     5    1
    36     5     6    1
    37     4     7    1
    38     7     8    1
    39    34    35   ar
    40    35    36   ar
    41    43    40    1
    42    36    26   ar
    43    35    29   ar
    44     6     1    1
    45     8     1    1
    46    17    12   ar
    47    22    15    1
    48    39    44    1
    49    39    45    1
    50     9    10    1
    51    18    23    1
@<TRIPOS>MOLECULE
*****
 45 51 0 0 0
SMALL
GASTEIGER

@<TRIPOS>ATOM
      1 C         137.9114  142.6661  163.8151 C.3     1  UNL1        0.0932
      2 C         137.7615  142.5404  162.3280 C.3     1  UNL1        0.0286
      3 C         137.7613  141.1846  161.6861 C.3     1  UNL1        0.0193
      4 C         137.9110  139.9546  162.5315 C.3     1  UNL1        0.0700
      5 C         138.0609  140.0804  164.0188 C.3     1  UNL1        0.0193
      6 C         138.0611  141.4361  164.6605 C.3     1  UNL1        0.0286
      7 C         137.9169  140.6759  162.9285 C.3     1  UNL1        0.1562
      8 O         137.9171  141.9019  163.5088 O.3     1  UNL1       -0.3572
      9 N         137.9108  138.5988  161.8898 N.3     1  UNL1       -0.2926
     10 H         137.1659  138.6030  161.1930 H       1  UNL1        0.1236
     11 C         139.1445  138.0946  161.2016 C.3     1  UNL1        0.1152
     12 C         140.4956  138.3523  161.8003 C.ar    1  UNL1        0.0765
     13 C         141.6061  138.8848  160.9440 C.ar    1  UNL1        0.0193
     14 C         142.9571  139.1425  161.5426 C.ar    1  UNL1        0.0411
     15 C         143.1976  138.8677  162.9974 C.ar    1  UNL1        0.1708
     16 C         142.0871  138.3352  163.8537 C.ar    1  UNL1        0.1682
     17 N         140.7361  138.0775  163.2551 N.ar    1  UNL1       -0.2304
     18 N         142.3276  138.0603  165.3086 N.am    1  UNL1       -0.2639
     19 C         143.6786  138.3180  165.9072 C.2     1  UNL1        0.2718
     20 O         143.9192  138.0432  167.3621 O.2     1  UNL1       -0.2707
     21 C         144.7892  138.8505  165.0509 C.3     1  UNL1        0.2898
     22 O         144.5487  139.1254  163.5961 O.3     1  UNL1       -0.4628
     23 H         141.5988  137.7108  165.8706 H       1  UNL1        0.1565
     24 C         137.9116  144.0219  164.4570 C.3     1  UNL1        0.0320
     25 C         139.2107  144.7063  164.7636 C.3     1  UNL1        0.0327
     26 C         142.8839  142.3163  165.7861 C.ar    1  UNL1        0.2250
     27 C         144.0219  142.2364  164.8122 C.ar    1  UNL1        0.0593
     28 C         143.9355  142.9532  163.4974 C.ar    1  UNL1        0.0254
     29 C         142.7111  143.7499  163.1566 C.ar    1  UNL1        0.0990
     30 N         142.6247  144.4668  161.8418 N.ar    1  UNL1       -0.2400
     31 C         141.4003  145.2634  161.5009 C.ar    1  UNL1        0.1281
     32 C         140.2623  145.3433  162.4749 C.ar    1  UNL1        0.1566
     33 F         139.0379  146.1399  162.1341 F       1  UNL1       -0.2028
     34 C         140.3487  144.6264  163.7897 C.ar    1  UNL1        0.0261
     35 C         141.5731  143.8298  164.1305 C.ar    1  UNL1        0.1002
     36 N         141.6595  143.1129  165.4453 N.ar    1  UNL1       -0.2104
     37 O         142.9703  141.5994  167.1010 O.3     1  UNL1       -0.4575
     38 C         143.0383  142.3820  168.3788 C.3     1  UNL1        0.2378
     39 N         142.0680  142.0335  171.8503 N.3     1  UNL1       -0.3181
     40 C         141.3855  142.5044  170.6004 C.3     1  UNL1        0.1121
     41 C         140.0183  143.0260  170.2707 C.3     1  UNL1        0.1602
     42 O         140.4202  143.1703  168.8327 O.3     1  UNL1       -0.3495
     43 C         141.7873  142.6488  169.1624 C.3     1  UNL1        0.1753
     44 H         141.4208  142.0977  172.6360 H       1  UNL1        0.1190
     45 H         142.8837  142.6179  172.0330 H       1  UNL1        0.1190
@<TRIPOS>BOND
     1    40    39    1
     2    40    41    1
     3    41    42    1
     4    42    43    1
     5    43    38    1
     6    38    37    1
     7    37    26    1
     8    26    27   ar
     9    27    28   ar
    10    28    29   ar
    11    29    30   ar
    12    30    31   ar
    13    31    32   ar
    14    32    33    1
    15    32    34   ar
    16    34    25    1
    17    25    24    1
    18    24     1    1
    19     1     2    1
    20     2     3    1
    21     3     4    1
    22     4     9    1
    23     9    11    1
    24    11    12    1
    25    12    13   ar
    26    13    14   ar
    27    14    15   ar
    28    15    16   ar
    29    16    17   ar
    30    16    18    1
    31    18    19   am
    32    19    20    2
    33    19    21    1
    34    21    22    1
    35     4     5    1
    36     5     6    1
    37     4     7    1
    38     7     8    1
    39    34    35   ar
    40    35    36   ar
    41    43    40    1
    42    36    26   ar
    43    35    29   ar
    44     6     1    1
    45     8     1    1
    46    17    12   ar
    47    22    15    1
    48    39    44    1
    49    39    45    1
    50     9    10    1
    51    18    23    1
@<TRIPOS>MOLECULE
*****
 45 51 0 0 0
SMALL
GASTEIGER

@<TRIPOS>ATOM
      1 C         143.7113  142.0676  164.0854 C.3     1  UNL1        0.0932
      2 C         142.6986  142.5892  165.0613 C.3     1  UNL1        0.0286
      3 C         141.9415  143.8476  164.7557 C.3     1  UNL1        0.0193
      4 C         142.1970  144.5842  163.4743 C.3     1  UNL1        0.0700
      5 C         143.2097  144.0625  162.4984 C.3     1  UNL1        0.0193
      6 C         143.9668  142.8042  162.8040 C.3     1  UNL1        0.0286
      7 C         142.6365  143.8989  163.5978 C.3     1  UNL1        0.1562
      8 O         143.3211  142.7611  163.8742 O.3     1  UNL1       -0.3572
      9 N         141.4398  145.8425  163.1687 N.3     1  UNL1       -0.2926
     10 H         142.0944  146.4758  162.7095 H       1  UNL1        0.1236
     11 C         140.2127  145.7890  162.3078 C.3     1  UNL1        0.1152
     12 C         139.4561  144.5023  162.1593 C.ar    1  UNL1        0.0765
     13 C         138.4129  144.1249  163.1689 C.ar    1  UNL1        0.0193
     14 C         137.6564  142.8382  163.0204 C.ar    1  UNL1        0.0411
     15 C         137.9431  141.9289  161.8624 C.ar    1  UNL1        0.1708
     16 C         138.9864  142.3064  160.8529 C.ar    1  UNL1        0.1682
     17 N         139.7429  143.5930  161.0013 N.ar    1  UNL1       -0.2304
     18 N         139.2731  141.3970  159.6948 N.am    1  UNL1       -0.2639
     19 C         138.5166  140.1104  159.5463 C.2     1  UNL1        0.2718
     20 O         138.8033  139.2010  158.3883 O.2     1  UNL1       -0.2707
     21 C         137.4733  139.7329  160.5559 C.3     1  UNL1        0.2898
     22 O         137.1866  140.6422  161.7139 O.3     1  UNL1       -0.4628
     23 H         139.9578  141.6447  159.0322 H       1  UNL1        0.1565
     24 C         144.4685  140.8092  164.3909 C.3     1  UNL1        0.0320
     25 C         143.7306  139.5743  164.8159 C.3     1  UNL1        0.0327
     26 C         139.5255  139.4699  166.4148 C.ar    1  UNL1        0.2250
     27 C         138.4131  138.9310  165.5649 C.ar    1  UNL1        0.0593
     28 C         138.7025  138.4271  164.1821 C.ar    1  UNL1        0.0254
     29 C         140.1042  138.4619  163.6492 C.ar    1  UNL1        0.0990
     30 N         140.3935  137.9578  162.2663 N.ar    1  UNL1       -0.2400
     31 C         141.7952  137.9927  161.7333 C.ar    1  UNL1        0.1281
     32 C         142.9076  138.5315  162.5833 C.ar    1  UNL1        0.1566
     33 F         144.3093  138.5664  162.0503 F       1  UNL1       -0.2028
     34 C         142.6182  139.0355  163.9661 C.ar    1  UNL1        0.0261
     35 C         141.2165  139.0007  164.4990 C.ar    1  UNL1        0.1002
     36 N         140.9272  139.5047  165.8818 N.ar    1  UNL1       -0.2104
     37 O         139.2361  139.9739  167.7977 O.3     1  UNL1       -0.4575
     38 C         140.3590  140.4403  168.6761 C.3     1  UNL1        0.2378
     39 N         140.5220  142.0625  171.9096 N.3     1  UNL1       -0.3181
     40 C         140.4682  142.5355  170.4872 C.3     1  UNL1        0.1121
     41 C         140.4597  143.8764  169.8150 C.3     1  UNL1        0.1602
     42 O         140.3922  143.2044  168.4756 O.3     1  UNL1       -0.3495
     43 C         140.4007  141.8636  169.1478 C.3     1  UNL1        0.1753
     44 H         140.5609  142.8678  172.5345 H       1  UNL1        0.1190
     45 H         141.3528  141.4865  172.0452 H       1  UNL1        0.1190
@<TRIPOS>BOND
     1    40    39    1
     2    40    41    1
     3    41    42    1
     4    42    43    1
     5    43    38    1
     6    38    37    1
     7    37    26    1
     8    26    27   ar
     9    27    28   ar
    10    28    29   ar
    11    29    30   ar
    12    30    31   ar
    13    31    32   ar
    14    32    33    1
    15    32    34   ar
    16    34    25    1
    17    25    24    1
    18    24     1    1
    19     1     2    1
    20     2     3    1
    21     3     4    1
    22     4     9    1
    23     9    11    1
    24    11    12    1
    25    12    13   ar
    26    13    14   ar
    27    14    15   ar
    28    15    16   ar
    29    16    17   ar
    30    16    18    1
    31    18    19   am
    32    19    20    2
    33    19    21    1
    34    21    22    1
    35     4     5    1
    36     5     6    1
    37     4     7    1
    38     7     8    1
    39    34    35   ar
    40    35    36   ar
    41    43    40    1
    42    36    26   ar
    43    35    29   ar
    44     6     1    1
    45     8     1    1
    46    17    12   ar
    47    22    15    1
    48    39    44    1
    49    39    45    1
    50     9    10    1
    51    18    23    1
@<TRIPOS>MOLECULE
*****
 45 51 0 0 0
SMALL
GASTEIGER

@<TRIPOS>ATOM
      1 C         142.5926  142.1148  166.2075 C.3     1  UNL1        0.0932
      2 C         142.7041  140.8096  166.9384 C.3     1  UNL1        0.0286
      3 C         141.4653  140.0494  167.3092 C.3     1  UNL1        0.0193
      4 C         140.1150  140.5945  166.9492 C.3     1  UNL1        0.0700
      5 C         140.0035  141.8997  166.2183 C.3     1  UNL1        0.0193
      6 C         141.2423  142.6598  165.8475 C.3     1  UNL1        0.0286
      7 C         140.7653  141.0469  166.7248 C.3     1  UNL1        0.1562
      8 O         141.8855  141.7342  166.3895 O.3     1  UNL1       -0.3572
      9 N         138.8762  139.8343  167.3201 N.3     1  UNL1       -0.2926
     10 H         138.0949  140.4844  167.2338 H       1  UNL1        0.1236
     11 C         138.4979  138.5991  166.5578 C.3     1  UNL1        0.1152
     12 C         138.8893  138.4577  165.1167 C.ar    1  UNL1        0.0765
     13 C         140.0619  137.6021  164.7385 C.ar    1  UNL1        0.0193
     14 C         140.4534  137.4607  163.2975 C.ar    1  UNL1        0.0411
     15 C         139.6723  138.1749  162.2346 C.ar    1  UNL1        0.1708
     16 C         138.4998  139.0306  162.6127 C.ar    1  UNL1        0.1682
     17 N         138.1083  139.1720  164.0538 N.ar    1  UNL1       -0.2304
     18 N         137.7188  139.7448  161.5497 N.am    1  UNL1       -0.2639
     19 C         138.1103  139.6034  160.1087 C.2     1  UNL1        0.2718
     20 O         137.3292  140.3177  159.0457 O.2     1  UNL1       -0.2707
     21 C         139.2828  138.7478  159.7305 C.3     1  UNL1        0.2898
     22 O         140.0638  138.0335  160.7934 O.3     1  UNL1       -0.4628
     23 H         136.9492  140.3064  161.7979 H       1  UNL1        0.1565
     24 C         143.8314  142.8749  165.8366 C.3     1  UNL1        0.0320
     25 C         144.6168  142.4818  164.6206 C.3     1  UNL1        0.0327
     26 C         141.6746  143.9461  161.5466 C.ar    1  UNL1        0.2250
     27 C         141.0885  142.9874  160.5529 C.ar    1  UNL1        0.0593
     28 C         141.4832  141.5406  160.5839 C.ar    1  UNL1        0.0254
     29 C         142.4639  141.0525  161.6086 C.ar    1  UNL1        0.0990
     30 N         142.8586  139.6056  161.6396 N.ar    1  UNL1       -0.2400
     31 C         143.8393  139.1175  162.6643 C.ar    1  UNL1        0.1281
     32 C         144.4254  140.0763  163.6580 C.ar    1  UNL1        0.1566
     33 F         145.4061  139.5883  164.6826 F       1  UNL1       -0.2028
     34 C         144.0307  141.5231  163.6269 C.ar    1  UNL1        0.0261
     35 C         143.0500  142.0112  162.6023 C.ar    1  UNL1        0.1002
     36 N         142.6553  143.4580  162.5713 N.ar    1  UNL1       -0.2104
     37 O         141.2799  145.3929  161.5156 O.3     1  UNL1       -0.4575
     38 C         139.8693  145.7925  161.8326 C.3     1  UNL1        0.2378
     39 N         137.6003  142.9821  161.5735 N.3     1  UNL1       -0.3181
     40 C         138.1229  143.8229  162.7003 C.3     1  UNL1        0.1121
     41 C         137.9221  143.8479  164.1866 C.3     1  UNL1        0.1602
     42 O         138.8620  145.0121  164.2939 O.3     1  UNL1       -0.3495
     43 C         139.0628  144.9871  162.8077 C.3     1  UNL1        0.1753
     44 H         136.9648  142.2751  161.9431 H       1  UNL1        0.1190
     45 H         138.3799  142.5247  161.1007 H       1  UNL1        0.1190
@<TRIPOS>BOND
     1    40    39    1
     2    40    41    1
     3    41    42    1
     4    42    43    1
     5    43    38    1
     6    38    37    1
     7    37    26    1
     8    26    27   ar
     9    27    28   ar
    10    28    29   ar
    11    29    30   ar
    12    30    31   ar
    13    31    32   ar
    14    32    33    1
    15    32    34   ar
    16    34    25    1
    17    25    24    1
    18    24     1    1
    19     1     2    1
    20     2     3    1
    21     3     4    1
    22     4     9    1
    23     9    11    1
    24    11    12    1
    25    12    13   ar
    26    13    14   ar
    27    14    15   ar
    28    15    16   ar
    29    16    17   ar
    30    16    18    1
    31    18    19   am
    32    19    20    2
    33    19    21    1
    34    21    22    1
    35     4     5    1
    36     5     6    1
    37     4     7    1
    38     7     8    1
    39    34    35   ar
    40    35    36   ar
    41    43    40    1
    42    36    26   ar
    43    35    29   ar
    44     6     1    1
    45     8     1    1
    46    17    12   ar
    47    22    15    1
    48    39    44    1
    49    39    45    1
    50     9    10    1
    51    18    23    1
@<TRIPOS>MOLECULE
*****
 45 51 0 0 0
SMALL
GASTEIGER

@<TRIPOS>ATOM
      1 C         141.8089  138.2759  164.3582 C.3     1  UNL1        0.0932
      2 C         141.9326  138.7839  162.9523 C.3     1  UNL1        0.0286
      3 C         143.1695  139.5179  162.5261 C.3     1  UNL1        0.0193
      4 C         144.2826  139.7438  163.5059 C.3     1  UNL1        0.0700
      5 C         144.1589  139.2357  164.9118 C.3     1  UNL1        0.0193
      6 C         142.9221  138.5018  165.3380 C.3     1  UNL1        0.0286
      7 C         143.6241  139.3362  163.7858 C.3     1  UNL1        0.1562
      8 O         142.5058  138.6725  164.1711 O.3     1  UNL1       -0.3572
      9 N         145.5194  140.4777  163.0798 N.3     1  UNL1       -0.2926
     10 H         145.6115  140.3399  162.0733 H       1  UNL1        0.1236
     11 C         145.6394  141.9521  163.3277 C.3     1  UNL1        0.1152
     12 C         144.4328  142.8345  163.2024 C.ar    1  UNL1        0.0765
     13 C         143.7743  143.3838  164.4331 C.ar    1  UNL1        0.0193
     14 C         142.5677  144.2661  164.3078 C.ar    1  UNL1        0.0411
     15 C         142.0197  144.5990  162.9518 C.ar    1  UNL1        0.1708
     16 C         142.6782  144.0497  161.7211 C.ar    1  UNL1        0.1682
     17 N         143.8848  143.1674  161.8464 N.ar    1  UNL1       -0.2304
     18 N         142.1301  144.3827  160.3650 N.am    1  UNL1       -0.2639
     19 C         140.9235  145.2650  160.2397 C.2     1  UNL1        0.2718
     20 O         140.3754  145.5979  158.8837 O.2     1  UNL1       -0.2707
     21 C         140.2650  145.8143  161.4704 C.3     1  UNL1        0.2898
     22 O         140.8130  145.4813  162.8264 O.3     1  UNL1       -0.4628
     23 H         142.5623  144.0221  159.5573 H       1  UNL1        0.1565
     24 C         140.5721  137.5419  164.7844 C.3     1  UNL1        0.0320
     25 C         139.3880  138.3044  165.3009 C.3     1  UNL1        0.0327
     26 C         137.7366  141.0734  162.1617 C.ar    1  UNL1        0.2250
     27 C         137.8252  142.5589  162.3502 C.ar    1  UNL1        0.0593
     28 C         138.4643  143.1213  163.5852 C.ar    1  UNL1        0.0254
     29 C         139.0148  142.1983  164.6316 C.ar    1  UNL1        0.0990
     30 N         139.6539  142.7608  165.8666 N.ar    1  UNL1       -0.2400
     31 C         140.2044  141.8377  166.9130 C.ar    1  UNL1        0.1281
     32 C         140.1158  140.3522  166.7244 C.ar    1  UNL1        0.1566
     33 F         140.6663  139.4292  167.7709 F       1  UNL1       -0.2028
     34 C         139.4767  139.7898  165.4895 C.ar    1  UNL1        0.0261
     35 C         138.9262  140.7128  164.4430 C.ar    1  UNL1        0.1002
     36 N         138.2871  140.1504  163.2081 N.ar    1  UNL1       -0.2104
     37 O         137.0974  140.5110  160.9266 O.3     1  UNL1       -0.4575
     38 C         137.8551  140.4920  159.6322 C.3     1  UNL1        0.2378
     39 N         139.1839  137.5956  161.3525 N.3     1  UNL1       -0.3181
     40 C         139.6434  138.4554  160.2126 C.3     1  UNL1        0.1121
     41 C         140.8437  138.4718  159.3130 C.3     1  UNL1        0.1602
     42 O         140.2932  139.6715  158.6005 O.3     1  UNL1       -0.3495
     43 C         139.0931  139.6552  159.5000 C.3     1  UNL1        0.1753
     44 H         139.8734  136.8642  161.5261 H       1  UNL1        0.1190
     45 H         138.2878  137.1691  161.1169 H       1  UNL1        0.1190
@<TRIPOS>BOND
     1    40    39    1
     2    40    41    1
     3    41    42    1
     4    42    43    1
     5    43    38    1
     6    38    37    1
     7    37    26    1
     8    26    27   ar
     9    27    28   ar
    10    28    29   ar
    11    29    30   ar
    12    30    31   ar
    13    31    32   ar
    14    32    33    1
    15    32    34   ar
    16    34    25    1
    17    25    24    1
    18    24     1    1
    19     1     2    1
    20     2     3    1
    21     3     4    1
    22     4     9    1
    23     9    11    1
    24    11    12    1
    25    12    13   ar
    26    13    14   ar
    27    14    15   ar
    28    15    16   ar
    29    16    17   ar
    30    16    18    1
    31    18    19   am
    32    19    20    2
    33    19    21    1
    34    21    22    1
    35     4     5    1
    36     5     6    1
    37     4     7    1
    38     7     8    1
    39    34    35   ar
    40    35    36   ar
    41    43    40    1
    42    36    26   ar
    43    35    29   ar
    44     6     1    1
    45     8     1    1
    46    17    12   ar
    47    22    15    1
    48    39    44    1
    49    39    45    1
    50     9    10    1
    51    18    23    1
@<TRIPOS>MOLECULE
*****
 45 51 0 0 0
SMALL
GASTEIGER

@<TRIPOS>ATOM
      1 C         143.7194  143.4875  164.2365 C.3     1  UNL1        0.0932
      2 C         143.4595  144.5633  163.2241 C.3     1  UNL1        0.0286
      3 C         142.0935  145.1727  163.1110 C.3     1  UNL1        0.0193
      4 C         140.9874  144.7063  164.0105 C.3     1  UNL1        0.0700
      5 C         141.2473  143.6304  165.0229 C.3     1  UNL1        0.0193
      6 C         142.6133  143.0211  165.1359 C.3     1  UNL1        0.0286
      7 C         141.7194  144.3424  164.1095 C.3     1  UNL1        0.1562
      8 O         142.9545  143.7915  164.2117 O.3     1  UNL1       -0.3572
      9 N         139.6214  145.3156  163.8975 N.3     1  UNL1       -0.2926
     10 H         139.7547  146.2873  163.6173 H       1  UNL1        0.1236
     11 C         138.6135  144.7276  162.9550 C.3     1  UNL1        0.1152
     12 C         138.4975  143.2386  162.8145 C.ar    1  UNL1        0.0765
     13 C         137.8575  142.4301  163.9038 C.ar    1  UNL1        0.0193
     14 C         137.7414  140.9413  163.7633 C.ar    1  UNL1        0.0411
     15 C         138.2653  140.2609  162.5335 C.ar    1  UNL1        0.1708
     16 C         138.9053  141.0694  161.4441 C.ar    1  UNL1        0.1682
     17 N         139.0214  142.5583  161.5846 N.ar    1  UNL1       -0.2304
     18 N         139.4293  140.3890  160.2142 N.am    1  UNL1       -0.2639
     19 C         139.3132  138.9002  160.0737 C.2     1  UNL1        0.2718
     20 O         139.8371  138.2198  158.8438 O.2     1  UNL1       -0.2707
     21 C         138.6732  138.0917  161.1631 C.3     1  UNL1        0.2898
     22 O         138.1493  138.7720  162.3929 O.3     1  UNL1       -0.4628
     23 H         139.8493  140.9197  159.4992 H       1  UNL1        0.1565
     24 C         145.0854  142.8781  164.3495 C.3     1  UNL1        0.0320
     25 C         145.4802  141.7491  163.4442 C.3     1  UNL1        0.0327
     26 C         143.1646  138.7710  165.8975 C.ar    1  UNL1        0.2250
     27 C         142.1090  137.9248  165.2497 C.ar    1  UNL1        0.0593
     28 C         141.8253  138.0714  163.7841 C.ar    1  UNL1        0.0254
     29 C         142.5972  139.0641  162.9664 C.ar    1  UNL1        0.0990
     30 N         142.3134  139.2106  161.5007 N.ar    1  UNL1       -0.2400
     31 C         143.0853  140.2034  160.6829 C.ar    1  UNL1        0.1281
     32 C         144.1409  141.0495  161.3308 C.ar    1  UNL1        0.1566
     33 F         144.9128  142.0423  160.5131 F       1  UNL1       -0.2028
     34 C         144.4246  140.9030  162.7964 C.ar    1  UNL1        0.0261
     35 C         143.6527  139.9103  163.6142 C.ar    1  UNL1        0.1002
     36 N         143.9365  139.7637  165.0798 N.ar    1  UNL1       -0.2104
     37 O         143.4483  138.6245  167.3632 O.3     1  UNL1       -0.4575
     38 C         142.5026  139.2057  168.3720 C.3     1  UNL1        0.2378
     39 N         142.2780  140.6697  171.6765 N.3     1  UNL1       -0.3181
     40 C         142.6718  141.1712  170.3188 C.3     1  UNL1        0.1121
     41 C         143.1357  142.4868  169.7675 C.3     1  UNL1        0.1602
     42 O         143.2287  141.8803  168.3987 O.3     1  UNL1       -0.3495
     43 C         142.7648  140.5648  168.9500 C.3     1  UNL1        0.1753
     44 H         142.3569  141.4274  172.3549 H       1  UNL1        0.1190
     45 H         142.8950  139.9043  171.9484 H       1  UNL1        0.1190
@<TRIPOS>BOND
     1    40    39    1
     2    40    41    1
     3    41    42    1
     4    42    43    1
     5    43    38    1
     6    38    37    1
     7    37    26    1
     8    26    27   ar
     9    27    28   ar
    10    28    29   ar
    11    29    30   ar
    12    30    31   ar
    13    31    32   ar
    14    32    33    1
    15    32    34   ar
    16    34    25    1
    17    25    24    1
    18    24     1    1
    19     1     2    1
    20     2     3    1
    21     3     4    1
    22     4     9    1
    23     9    11    1
    24    11    12    1
    25    12    13   ar
    26    13    14   ar
    27    14    15   ar
    28    15    16   ar
    29    16    17   ar
    30    16    18    1
    31    18    19   am
    32    19    20    2
    33    19    21    1
    34    21    22    1
    35     4     5    1
    36     5     6    1
    37     4     7    1
    38     7     8    1
    39    34    35   ar
    40    35    36   ar
    41    43    40    1
    42    36    26   ar
    43    35    29   ar
    44     6     1    1
    45     8     1    1
    46    17    12   ar
    47    22    15    1
    48    39    44    1
    49    39    45    1
    50     9    10    1
    51    18    23    1
@<TRIPOS>MOLECULE
*****
 45 51 0 0 0
SMALL
GASTEIGER

@<TRIPOS>ATOM
      1 C         138.3589  140.0905  164.0981 C.3     1  UNL1        0.0932
      2 C         138.2608  141.2547  165.0389 C.3     1  UNL1        0.0286
      3 C         138.0317  142.6362  164.5013 C.3     1  UNL1        0.0193
      4 C         137.9008  142.8535  163.0229 C.3     1  UNL1        0.0700
      5 C         137.9989  141.6893  162.0821 C.3     1  UNL1        0.0193
      6 C         138.2280  140.3079  162.6197 C.3     1  UNL1        0.0286
      7 C         138.0257  142.0782  163.2704 C.3     1  UNL1        0.1562
      8 O         138.2328  140.8291  163.7566 O.3     1  UNL1       -0.3572
      9 N         137.6718  144.2350  162.4853 N.3     1  UNL1       -0.2926
     10 H         136.8937  144.6310  163.0127 H       1  UNL1        0.1236
     11 C         138.7786  145.2467  162.5210 C.3     1  UNL1        0.1152
     12 C         140.2054  144.8024  162.3909 C.ar    1  UNL1        0.0765
     13 C         141.1943  145.1299  163.4701 C.ar    1  UNL1        0.0193
     14 C         142.6210  144.6856  163.3401 C.ar    1  UNL1        0.0411
     15 C         143.0589  143.9138  162.1307 C.ar    1  UNL1        0.1708
     16 C         142.0700  143.5863  161.0515 C.ar    1  UNL1        0.1682
     17 N         140.6432  144.0306  161.1816 N.ar    1  UNL1       -0.2304
     18 N         142.5079  142.8144  159.8421 N.am    1  UNL1       -0.2639
     19 C         143.9346  142.3702  159.7120 C.2     1  UNL1        0.2718
     20 O         144.3725  141.5983  158.5026 O.2     1  UNL1       -0.2707
     21 C         144.9235  142.6977  160.7913 C.3     1  UNL1        0.2898
     22 O         144.4857  143.4695  162.0006 O.3     1  UNL1       -0.4628
     23 H         141.8588  142.5995  159.1337 H       1  UNL1        0.1565
     24 C         138.5880  138.7090  164.6357 C.3     1  UNL1        0.0320
     25 C         139.9147  138.3479  165.2352 C.3     1  UNL1        0.0327
     26 C         142.3008  141.8826  166.6715 C.ar    1  UNL1        0.2250
     27 C         143.5700  142.2657  165.9699 C.ar    1  UNL1        0.0593
     28 C         144.0439  141.4706  164.7896 C.ar    1  UNL1        0.0254
     29 C         143.2485  140.2924  164.3108 C.ar    1  UNL1        0.0990
     30 N         143.7224  139.4973  163.1304 N.ar    1  UNL1       -0.2400
     31 C         142.9271  138.3191  162.6516 C.ar    1  UNL1        0.1281
     32 C         141.6578  137.9360  163.3533 C.ar    1  UNL1        0.1566
     33 F         140.8624  136.7578  162.8745 F       1  UNL1       -0.2028
     34 C         141.1839  138.7311  164.5336 C.ar    1  UNL1        0.0261
     35 C         141.9793  139.9093  165.0124 C.ar    1  UNL1        0.1002
     36 N         141.5054  140.7044  166.1927 N.ar    1  UNL1       -0.2104
     37 O         141.8269  142.6777  167.8519 O.3     1  UNL1       -0.4575
     38 C         140.4917  142.3819  168.4682 C.3     1  UNL1        0.2378
     39 N         141.8332  141.9983  171.8099 N.3     1  UNL1       -0.3181
     40 C         140.9317  141.1850  170.9291 C.3     1  UNL1        0.1121
     41 C         140.2126  139.8760  171.0676 C.3     1  UNL1        0.1602
     42 O         139.6569  140.0349  169.6834 O.3     1  UNL1       -0.3495
     43 C         140.3761  141.3439  169.5449 C.3     1  UNL1        0.1753
     44 H         141.9634  141.5172  172.6999 H       1  UNL1        0.1190
     45 H         141.4120  142.9123  171.9760 H       1  UNL1        0.1190
@<TRIPOS>BOND
     1    40    39    1
     2    40    41    1
     3    41    42    1
     4    42    43    1
     5    43    38    1
     6    38    37    1
     7    37    26    1
     8    26    27   ar
     9    27    28   ar
    10    28    29   ar
    11    29    30   ar
    12    30    31   ar
    13    31    32   ar
    14    32    33    1
    15    32    34   ar
    16    34    25    1
    17    25    24    1
    18    24     1    1
    19     1     2    1
    20     2     3    1
    21     3     4    1
    22     4     9    1
    23     9    11    1
    24    11    12    1
    25    12    13   ar
    26    13    14   ar
    27    14    15   ar
    28    15    16   ar
    29    16    17   ar
    30    16    18    1
    31    18    19   am
    32    19    20    2
    33    19    21    1
    34    21    22    1
    35     4     5    1
    36     5     6    1
    37     4     7    1
    38     7     8    1
    39    34    35   ar
    40    35    36   ar
    41    43    40    1
    42    36    26   ar
    43    35    29   ar
    44     6     1    1
    45     8     1    1
    46    17    12   ar
    47    22    15    1
    48    39    44    1
    49    39    45    1
    50     9    10    1
    51    18    23    1
@<TRIPOS>MOLECULE
*****
 45 51 0 0 0
SMALL
GASTEIGER

@<TRIPOS>ATOM
      1 C         143.2233  138.9561  162.6440 C.3     1  UNL1        0.0932
      2 C         141.9040  138.7012  161.9773 C.3     1  UNL1        0.0286
      3 C         140.7429  138.1951  162.7810 C.3     1  UNL1        0.0193
      4 C         140.9011  137.9441  164.2513 C.3     1  UNL1        0.0700
      5 C         142.2205  138.1991  164.9180 C.3     1  UNL1        0.0193
      6 C         143.3815  138.7051  164.1144 C.3     1  UNL1        0.0286
      7 C         141.5660  138.2214  163.8525 C.3     1  UNL1        0.1562
      8 O         142.6158  138.6790  163.1258 O.3     1  UNL1       -0.3572
      9 N         139.7401  137.4381  165.0550 N.3     1  UNL1       -0.2926
     10 H         140.1305  136.9429  165.8567 H       1  UNL1        0.1236
     11 C         138.7243  138.4014  165.5937 C.3     1  UNL1        0.1152
     12 C         139.1722  139.6444  166.3040 C.ar    1  UNL1        0.0765
     13 C         139.4621  140.8915  165.5225 C.ar    1  UNL1        0.0193
     14 C         139.9100  142.1345  166.2326 C.ar    1  UNL1        0.0411
     15 C         140.0679  142.1304  167.7243 C.ar    1  UNL1        0.1708
     16 C         139.7780  140.8833  168.5057 C.ar    1  UNL1        0.1682
     17 N         139.3301  139.6403  167.7956 N.ar    1  UNL1       -0.2304
     18 N         139.9359  140.8792  169.9975 N.am    1  UNL1       -0.2639
     19 C         140.3838  142.1222  170.7076 C.2     1  UNL1        0.2718
     20 O         140.5417  142.1181  172.1993 O.2     1  UNL1       -0.2707
     21 C         140.6737  143.3693  169.9261 C.3     1  UNL1        0.2898
     22 O         140.5158  143.3734  168.4345 O.3     1  UNL1       -0.4628
     23 H         139.7456  140.0607  170.5104 H       1  UNL1        0.1565
     24 C         144.3844  139.4622  161.8403 C.3     1  UNL1        0.0320
     25 C         144.5826  140.9375  161.6558 C.3     1  UNL1        0.0327
     26 C         140.6682  143.0794  161.0728 C.ar    1  UNL1        0.2250
     27 C         140.1755  144.0386  162.1155 C.ar    1  UNL1        0.0593
     28 C         140.9877  144.2837  163.3526 C.ar    1  UNL1        0.0254
     29 C         142.2925  143.5698  163.5469 C.ar    1  UNL1        0.0990
     30 N         143.1046  143.8150  164.7840 N.ar    1  UNL1       -0.2400
     31 C         144.4094  143.1010  164.9783 C.ar    1  UNL1        0.1281
     32 C         144.9021  142.1418  163.9355 C.ar    1  UNL1        0.1566
     33 F         146.2069  141.4279  164.1298 F       1  UNL1       -0.2028
     34 C         144.0899  141.8967  162.6985 C.ar    1  UNL1        0.0261
     35 C         142.7851  142.6106  162.5042 C.ar    1  UNL1        0.1002
     36 N         141.9730  142.3654  161.2671 N.ar    1  UNL1       -0.2104
     37 O         139.8560  142.8342  159.8357 O.3     1  UNL1       -0.4575
     38 C         138.4381  142.3588  159.9514 C.3     1  UNL1        0.2378
     39 N         136.8652  141.2869  163.0322 N.3     1  UNL1       -0.3181
     40 C         137.4897  140.5880  161.8611 C.3     1  UNL1        0.1121
     41 C         137.7213  139.1556  161.4810 C.3     1  UNL1        0.1602
     42 O         138.3728  139.5996  160.2049 O.3     1  UNL1       -0.3495
     43 C         138.1412  141.0319  160.5850 C.3     1  UNL1        0.1753
     44 H         136.5333  140.5947  163.7038 H       1  UNL1        0.1190
     45 H         136.0798  141.8529  162.7110 H       1  UNL1        0.1190
@<TRIPOS>BOND
     1    40    39    1
     2    40    41    1
     3    41    42    1
     4    42    43    1
     5    43    38    1
     6    38    37    1
     7    37    26    1
     8    26    27   ar
     9    27    28   ar
    10    28    29   ar
    11    29    30   ar
    12    30    31   ar
    13    31    32   ar
    14    32    33    1
    15    32    34   ar
    16    34    25    1
    17    25    24    1
    18    24     1    1
    19     1     2    1
    20     2     3    1
    21     3     4    1
    22     4     9    1
    23     9    11    1
    24    11    12    1
    25    12    13   ar
    26    13    14   ar
    27    14    15   ar
    28    15    16   ar
    29    16    17   ar
    30    16    18    1
    31    18    19   am
    32    19    20    2
    33    19    21    1
    34    21    22    1
    35     4     5    1
    36     5     6    1
    37     4     7    1
    38     7     8    1
    39    34    35   ar
    40    35    36   ar
    41    43    40    1
    42    36    26   ar
    43    35    29   ar
    44     6     1    1
    45     8     1    1
    46    17    12   ar
    47    22    15    1
    48    39    44    1
    49    39    45    1
    50     9    10    1
    51    18    23    1
