@<TRIPOS>MOLECULE
*****
 35 38 0 0 0
SMALL
GASTEIGER

@<TRIPOS>ATOM
      1 C         139.2521  138.5722  162.6658 C.ar    1  UNL1        0.0514
      2 C         139.3978  137.4534  163.6542 C.ar    1  UNL1        0.0149
      3 C         139.2379  137.7229  165.1211 C.ar    1  UNL1        0.0068
      4 C         138.9322  139.1113  165.5996 C.ar    1  UNL1        0.0658
      5 C         138.7865  140.2301  164.6112 C.ar    1  UNL1        0.0634
      6 CL        138.4808  141.6185  165.0897 Cl      1  UNL1       -0.0820
      7 C         138.9464  139.9606  163.1443 C.ar    1  UNL1        0.0262
      8 C         138.7723  139.3808  167.0665 C.ar    1  UNL1        0.2520
      9 N         137.7122  138.8053  167.9582 N.ar    1  UNL1       -0.1058
     10 N         137.9290  139.3419  169.3421 N.ar    1  UNL1       -0.0923
     11 C         139.1231  140.2491  169.3056 C.ar    1  UNL1        0.3086
     12 O         139.6442  140.2731  167.8992 O.2     1  UNL1       -0.4048
     13 N         139.6956  141.0003  170.4709 N.pl3   1  UNL1       -0.2871
     14 H         139.1064  141.5403  171.0458 H       1  UNL1        0.1512
     15 C         141.1656  140.9288  170.7603 C.3     1  UNL1        0.0912
     16 C         142.0614  142.0700  170.3793 C.3     1  UNL1        0.0227
     17 C         143.1954  141.8465  169.4233 C.3     1  UNL1        0.0191
     18 C         143.0578  142.2571  167.9872 C.3     1  UNL1        0.0721
     19 N         142.8872  141.2148  166.9221 N.3     1  UNL1       -0.2727
     20 C         142.9315  139.7595  167.2830 C.3     1  UNL1        0.0721
     21 C         142.7609  138.7171  166.2179 C.3     1  UNL1        0.0174
     22 C         142.5461  139.1300  164.7919 C.3     1  UNL1        0.0029
     23 C         142.5019  140.5853  164.4311 C.3     1  UNL1        0.0174
     24 C         142.6724  141.6277  165.4962 C.3     1  UNL1        0.0721
     25 O         141.6633  139.5995  161.2061 O.2     1  UNL1       -0.2697
     26 C         140.6176  138.8163  160.4691 C.2     1  UNL1        0.2517
     27 N         139.4121  138.3027  161.1989 N.am    1  UNL1       -0.2803
     28 H         138.7258  137.7887  160.7151 H       1  UNL1        0.1552
     29 C         140.7776  138.5468  159.0021 C.ar    1  UNL1        0.0811
     30 C         139.6344  138.7986  158.0643 C.ar    1  UNL1        0.0068
     31 C         139.7944  138.5291  156.5974 C.ar    1  UNL1        0.0003
     32 C         141.0976  138.0078  156.0684 C.ar    1  UNL1        0.0023
     33 C         142.2408  137.7560  157.0062 C.ar    1  UNL1        0.0298
     34 C         142.0808  138.0255  158.4731 C.ar    1  UNL1        0.1445
     35 F         143.2241  137.7737  159.4110 F       1  UNL1       -0.2040
@<TRIPOS>BOND
     1    25    26    2
     2    26    27   am
     3    27     1    1
     4     1     2   ar
     5     2     3   ar
     6     3     4   ar
     7     4     8    1
     8     8     9   ar
     9     9    10   ar
    10    10    11   ar
    11    11    13    1
    12    13    15    1
    13    15    16    1
    14    16    17    1
    15    17    18    1
    16    18    19    1
    17    19    20    1
    18    20    21    1
    19    21    22    1
    20    22    23    1
    21    23    24    1
    22    11    12   ar
    23     4     5   ar
    24     5     6    1
    25     5     7   ar
    26    26    29    1
    27    29    30   ar
    28    30    31   ar
    29    31    32   ar
    30    32    33   ar
    31    33    34   ar
    32    34    35    1
    33     7     1   ar
    34    34    29   ar
    35    12     8   ar
    36    24    19    1
    37    27    28    1
    38    13    14    1
@<TRIPOS>MOLECULE
*****
 35 38 0 0 0
SMALL
GASTEIGER

@<TRIPOS>ATOM
      1 C         143.7114  142.6065  159.7911 C.ar    1  UNL1        0.0514
      2 C         142.2650  142.2117  159.7466 C.ar    1  UNL1        0.0149
      3 C         141.4743  142.1161  161.0177 C.ar    1  UNL1        0.0068
      4 C         142.1300  142.4153  162.3332 C.ar    1  UNL1        0.0658
      5 C         143.5764  142.8101  162.3776 C.ar    1  UNL1        0.0634
      6 CL        144.2321  143.1093  163.6931 Cl      1  UNL1       -0.0820
      7 C         144.3671  142.9057  161.1066 C.ar    1  UNL1        0.0262
      8 C         141.3392  142.3197  163.6043 C.ar    1  UNL1        0.2520
      9 N         141.0848  143.4384  164.5707 N.ar    1  UNL1       -0.1058
     10 N         140.2524  142.8987  165.6958 N.ar    1  UNL1       -0.0923
     11 C         139.9924  141.4465  165.4247 C.ar    1  UNL1        0.3086
     12 O         140.6640  141.0886  164.1321 O.2     1  UNL1       -0.4048
     13 N         139.1998  140.5155  166.2938 N.pl3   1  UNL1       -0.2871
     14 H         139.2909  140.5590  167.2731 H       1  UNL1        0.1512
     15 C         138.2684  139.5184  165.6707 C.3     1  UNL1        0.0912
     16 C         138.7065  138.0957  165.4870 C.3     1  UNL1        0.0227
     17 C         139.5810  137.7241  164.3262 C.3     1  UNL1        0.0191
     18 C         140.9586  137.1827  164.5682 C.3     1  UNL1        0.0721
     19 N         142.1607  137.9747  164.1464 N.3     1  UNL1       -0.2727
     20 C         142.4410  138.1934  162.6892 C.3     1  UNL1        0.0721
     21 C         143.6431  138.9854  162.2673 C.3     1  UNL1        0.0174
     22 C         144.5647  139.5587  163.3027 C.3     1  UNL1        0.0029
     23 C         144.2842  139.3400  164.7599 C.3     1  UNL1        0.0174
     24 C         143.0822  138.5480  165.1818 C.3     1  UNL1        0.0721
     25 O         144.4945  140.1117  158.3204 O.2     1  UNL1       -0.2697
     26 C         144.8937  141.4547  157.7847 C.2     1  UNL1        0.2517
     27 N         144.5021  142.7021  158.5200 N.am    1  UNL1       -0.2803
     28 H         144.7641  143.5836  158.1684 H       1  UNL1        0.1552
     29 C         145.6845  141.5504  156.5136 C.ar    1  UNL1        0.0811
     30 C         145.1735  140.9009  155.2617 C.ar    1  UNL1        0.0068
     31 C         145.9643  140.9965  153.9907 C.ar    1  UNL1        0.0003
     32 C         147.2660  141.7416  153.9715 C.ar    1  UNL1        0.0023
     33 C         147.7769  142.3911  155.2234 C.ar    1  UNL1        0.0298
     34 C         146.9862  142.2955  156.4944 C.ar    1  UNL1        0.1445
     35 F         147.4971  142.9450  157.7463 F       1  UNL1       -0.2040
@<TRIPOS>BOND
     1    25    26    2
     2    26    27   am
     3    27     1    1
     4     1     2   ar
     5     2     3   ar
     6     3     4   ar
     7     4     8    1
     8     8     9   ar
     9     9    10   ar
    10    10    11   ar
    11    11    13    1
    12    13    15    1
    13    15    16    1
    14    16    17    1
    15    17    18    1
    16    18    19    1
    17    19    20    1
    18    20    21    1
    19    21    22    1
    20    22    23    1
    21    23    24    1
    22    11    12   ar
    23     4     5   ar
    24     5     6    1
    25     5     7   ar
    26    26    29    1
    27    29    30   ar
    28    30    31   ar
    29    31    32   ar
    30    32    33   ar
    31    33    34   ar
    32    34    35    1
    33     7     1   ar
    34    34    29   ar
    35    12     8   ar
    36    24    19    1
    37    27    28    1
    38    13    14    1
@<TRIPOS>MOLECULE
*****
 35 38 0 0 0
SMALL
GASTEIGER

@<TRIPOS>ATOM
      1 C         141.2573  144.7005  159.7050 C.ar    1  UNL1        0.0514
      2 C         140.3454  144.6329  160.8940 C.ar    1  UNL1        0.0149
      3 C         140.5696  143.5947  161.9531 C.ar    1  UNL1        0.0068
      4 C         141.7058  142.6240  161.8232 C.ar    1  UNL1        0.0658
      5 C         142.6178  142.6916  160.6342 C.ar    1  UNL1        0.0634
      6 CL        143.7540  141.7209  160.5043 Cl      1  UNL1       -0.0820
      7 C         142.3935  143.7298  159.5751 C.ar    1  UNL1        0.0262
      8 C         141.9301  141.5858  162.8824 C.ar    1  UNL1        0.2520
      9 N         142.8699  141.7017  164.0457 N.ar    1  UNL1       -0.1058
     10 N         142.7746  140.4370  164.8465 N.ar    1  UNL1       -0.0923
     11 C         141.7758  139.5394  164.1781 C.ar    1  UNL1        0.3086
     12 O         141.2538  140.2494  162.9643 O.2     1  UNL1       -0.4048
     13 N         141.3701  138.1719  164.6422 N.pl3   1  UNL1       -0.2871
     14 H         142.0042  137.6164  165.1507 H       1  UNL1        0.1512
     15 C         139.9983  137.6507  164.3314 C.3     1  UNL1        0.0912
     16 C         138.8851  137.8324  165.3202 C.3     1  UNL1        0.0227
     17 C         138.3944  139.2105  165.6522 C.3     1  UNL1        0.0191
     18 C         138.1511  140.2044  164.5555 C.3     1  UNL1        0.0721
     19 N         138.4325  141.6596  164.7860 N.3     1  UNL1       -0.2727
     20 C         137.5768  142.7020  164.1294 C.3     1  UNL1        0.0721
     21 C         137.8581  144.1574  164.3598 C.3     1  UNL1        0.0174
     22 C         138.9950  144.5702  165.2470 C.3     1  UNL1        0.0029
     23 C         139.8506  143.5277  165.9036 C.3     1  UNL1        0.0174
     24 C         139.5693  142.0724  165.6731 C.3     1  UNL1        0.0721
     25 O         139.6710  144.0215  157.2509 O.2     1  UNL1       -0.2697
     26 C         140.2399  145.3992  157.4188 C.2     1  UNL1        0.2517
     27 N         141.0331  145.7387  158.6458 N.am    1  UNL1       -0.2803
     28 H         141.4065  146.6430  158.7559 H       1  UNL1        0.1552
     29 C         140.0157  146.4375  156.3596 C.ar    1  UNL1        0.0811
     30 C         139.0655  147.5709  156.6095 C.ar    1  UNL1        0.0068
     31 C         138.8413  148.6090  155.5504 C.ar    1  UNL1        0.0003
     32 C         139.5673  148.5138  154.2412 C.ar    1  UNL1        0.0023
     33 C         140.5175  147.3804  153.9912 C.ar    1  UNL1        0.0298
     34 C         140.7417  146.3422  155.0504 C.ar    1  UNL1        0.1445
     35 F         141.6919  145.2088  154.8005 F       1  UNL1       -0.2040
@<TRIPOS>BOND
     1    25    26    2
     2    26    27   am
     3    27     1    1
     4     1     2   ar
     5     2     3   ar
     6     3     4   ar
     7     4     8    1
     8     8     9   ar
     9     9    10   ar
    10    10    11   ar
    11    11    13    1
    12    13    15    1
    13    15    16    1
    14    16    17    1
    15    17    18    1
    16    18    19    1
    17    19    20    1
    18    20    21    1
    19    21    22    1
    20    22    23    1
    21    23    24    1
    22    11    12   ar
    23     4     5   ar
    24     5     6    1
    25     5     7   ar
    26    26    29    1
    27    29    30   ar
    28    30    31   ar
    29    31    32   ar
    30    32    33   ar
    31    33    34   ar
    32    34    35    1
    33     7     1   ar
    34    34    29   ar
    35    12     8   ar
    36    24    19    1
    37    27    28    1
    38    13    14    1
@<TRIPOS>MOLECULE
*****
 35 38 0 0 0
SMALL
GASTEIGER

@<TRIPOS>ATOM
      1 C         137.8705  139.7726  161.1223 C.ar    1  UNL1        0.0514
      2 C         138.3453  138.4952  161.7491 C.ar    1  UNL1        0.0149
      3 C         138.5595  138.4217  163.2318 C.ar    1  UNL1        0.0068
      4 C         138.2989  139.6255  164.0879 C.ar    1  UNL1        0.0658
      5 C         137.8242  140.9029  163.4612 C.ar    1  UNL1        0.0634
      6 CL        137.5636  142.1068  164.3172 Cl      1  UNL1       -0.0820
      7 C         137.6100  140.9765  161.9784 C.ar    1  UNL1        0.0262
      8 C         138.5131  139.5519  165.5707 C.ar    1  UNL1        0.2520
      9 N         137.6429  138.8243  166.5522 N.ar    1  UNL1       -0.1058
     10 N         138.2271  139.0156  167.9205 N.ar    1  UNL1       -0.0923
     11 C         139.4583  139.8616  167.7846 C.ar    1  UNL1        0.3086
     12 O         139.6351  140.1930  166.3324 O.2     1  UNL1       -0.4048
     13 N         140.3553  140.2993  168.9044 N.pl3   1  UNL1       -0.2871
     14 H         139.9717  140.7260  169.7043 H       1  UNL1        0.1512
     15 C         141.8369  140.0867  168.8053 C.3     1  UNL1        0.0912
     16 C         142.7601  141.2663  168.7254 C.3     1  UNL1        0.0227
     17 C         142.8197  142.0885  167.4723 C.3     1  UNL1        0.0191
     18 C         143.0798  141.4258  166.1521 C.3     1  UNL1        0.0721
     19 N         142.3295  141.8670  164.9305 N.3     1  UNL1       -0.2727
     20 C         141.8197  143.2743  164.8311 C.3     1  UNL1        0.0721
     21 C         141.0693  143.7156  163.6095 C.3     1  UNL1        0.0174
     22 C         140.8287  142.7497  162.4874 C.3     1  UNL1        0.0029
     23 C         141.3385  141.3425  162.5869 C.3     1  UNL1        0.0174
     24 C         142.0889  140.9012  163.8084 C.3     1  UNL1        0.0721
     25 O         140.0250  140.8730  159.3482 O.2     1  UNL1       -0.2697
     26 C         138.7336  140.3964  158.7525 C.2     1  UNL1        0.2517
     27 N         137.6563  139.8462  159.6395 N.am    1  UNL1       -0.2803
     28 H         136.8087  139.5334  159.2485 H       1  UNL1        0.1552
     29 C         138.5193  140.4700  157.2696 C.ar    1  UNL1        0.0811
     30 C         139.0409  139.3796  156.3815 C.ar    1  UNL1        0.0068
     31 C         138.8267  139.4532  154.8987 C.ar    1  UNL1        0.0003
     32 C         138.0909  140.6173  154.3041 C.ar    1  UNL1        0.0023
     33 C         137.5693  141.7077  155.1923 C.ar    1  UNL1        0.0298
     34 C         137.7835  141.6340  156.6750 C.ar    1  UNL1        0.1445
     35 F         137.2619  142.7245  157.5633 F       1  UNL1       -0.2040
@<TRIPOS>BOND
     1    25    26    2
     2    26    27   am
     3    27     1    1
     4     1     2   ar
     5     2     3   ar
     6     3     4   ar
     7     4     8    1
     8     8     9   ar
     9     9    10   ar
    10    10    11   ar
    11    11    13    1
    12    13    15    1
    13    15    16    1
    14    16    17    1
    15    17    18    1
    16    18    19    1
    17    19    20    1
    18    20    21    1
    19    21    22    1
    20    22    23    1
    21    23    24    1
    22    11    12   ar
    23     4     5   ar
    24     5     6    1
    25     5     7   ar
    26    26    29    1
    27    29    30   ar
    28    30    31   ar
    29    31    32   ar
    30    32    33   ar
    31    33    34   ar
    32    34    35    1
    33     7     1   ar
    34    34    29   ar
    35    12     8   ar
    36    24    19    1
    37    27    28    1
    38    13    14    1
@<TRIPOS>MOLECULE
*****
 35 38 0 0 0
SMALL
GASTEIGER

@<TRIPOS>ATOM
      1 C         141.9999  138.7284  158.9525 C.ar    1  UNL1        0.0514
      2 C         140.9898  139.7961  158.6535 C.ar    1  UNL1        0.0149
      3 C         141.0115  141.0850  159.4205 C.ar    1  UNL1        0.0068
      4 C         142.0434  141.3061  160.4864 C.ar    1  UNL1        0.0658
      5 C         143.0536  140.2384  160.7854 C.ar    1  UNL1        0.0634
      6 CL        144.0855  140.4595  161.8514 Cl      1  UNL1       -0.0820
      7 C         143.0318  138.9495  160.0185 C.ar    1  UNL1        0.0262
      8 C         142.0651  142.5951  161.2534 C.ar    1  UNL1        0.2520
      9 N         143.0182  143.7332  161.0381 N.ar    1  UNL1       -0.1058
     10 N         142.6797  144.8137  162.0220 N.ar    1  UNL1       -0.0923
     11 C         141.5174  144.3434  162.8453 C.ar    1  UNL1        0.3086
     12 O         141.1376  142.9722  162.3703 O.2     1  UNL1       -0.4048
     13 N         140.8518  145.1097  163.9497 N.pl3   1  UNL1       -0.2871
     14 H         141.1178  146.0396  164.1334 H       1  UNL1        0.1512
     15 C         139.7808  144.4592  164.7742 C.3     1  UNL1        0.0912
     16 C         138.3971  144.3014  164.2168 C.3     1  UNL1        0.0227
     17 C         137.8249  142.9308  164.0071 C.3     1  UNL1        0.0191
     18 C         138.5737  141.7237  164.4886 C.3     1  UNL1        0.0721
     19 N         138.8317  140.5789  163.5543 N.3     1  UNL1       -0.2727
     20 C         137.8017  140.1982  162.5325 C.3     1  UNL1        0.0721
     21 C         138.0596  139.0534  161.5980 C.3     1  UNL1        0.0174
     22 C         139.3475  138.2894  161.6854 C.3     1  UNL1        0.0029
     23 C         140.3775  138.6703  162.7073 C.3     1  UNL1        0.0174
     24 C         140.1196  139.8150  163.6416 C.3     1  UNL1        0.0721
     25 O         143.8611  138.3313  156.6334 O.2     1  UNL1       -0.2697
     26 C         142.9088  137.2409  157.0260 C.2     1  UNL1        0.2517
     27 N         141.9782  137.4394  158.1855 N.am    1  UNL1       -0.2803
     28 H         141.3532  136.7238  158.4432 H       1  UNL1        0.1552
     29 C         142.8871  135.9519  156.2590 C.ar    1  UNL1        0.0811
     30 C         142.5686  135.9567  154.7932 C.ar    1  UNL1        0.0068
     31 C         142.5470  134.6678  154.0263 C.ar    1  UNL1        0.0003
     32 C         142.8438  133.3741  154.7252 C.ar    1  UNL1        0.0023
     33 C         143.1622  133.3694  156.1910 C.ar    1  UNL1        0.0298
     34 C         143.1839  134.6583  156.9579 C.ar    1  UNL1        0.1445
     35 F         143.5024  134.6536  158.4237 F       1  UNL1       -0.2040
@<TRIPOS>BOND
     1    25    26    2
     2    26    27   am
     3    27     1    1
     4     1     2   ar
     5     2     3   ar
     6     3     4   ar
     7     4     8    1
     8     8     9   ar
     9     9    10   ar
    10    10    11   ar
    11    11    13    1
    12    13    15    1
    13    15    16    1
    14    16    17    1
    15    17    18    1
    16    18    19    1
    17    19    20    1
    18    20    21    1
    19    21    22    1
    20    22    23    1
    21    23    24    1
    22    11    12   ar
    23     4     5   ar
    24     5     6    1
    25     5     7   ar
    26    26    29    1
    27    29    30   ar
    28    30    31   ar
    29    31    32   ar
    30    32    33   ar
    31    33    34   ar
    32    34    35    1
    33     7     1   ar
    34    34    29   ar
    35    12     8   ar
    36    24    19    1
    37    27    28    1
    38    13    14    1
@<TRIPOS>MOLECULE
*****
 35 38 0 0 0
SMALL
GASTEIGER

@<TRIPOS>ATOM
      1 C         141.2544  144.8365  159.9726 C.ar    1  UNL1        0.0514
      2 C         142.0773  143.5928  160.1333 C.ar    1  UNL1        0.0149
      3 C         142.0539  142.8405  161.4308 C.ar    1  UNL1        0.0068
      4 C         141.2077  143.3320  162.5676 C.ar    1  UNL1        0.0658
      5 C         140.3849  144.5758  162.4069 C.ar    1  UNL1        0.0634
      6 CL        139.5387  145.0673  163.5437 Cl      1  UNL1       -0.0820
      7 C         140.4082  145.3281  161.1094 C.ar    1  UNL1        0.0262
      8 C         141.1844  142.5797  163.8651 C.ar    1  UNL1        0.2520
      9 N         142.2774  142.5594  164.8923 N.ar    1  UNL1       -0.1058
     10 N         141.8326  141.6828  166.0253 N.ar    1  UNL1       -0.0923
     11 C         140.4647  141.1613  165.6983 C.ar    1  UNL1        0.3086
     12 O         140.0641  141.7156  164.3633 O.2     1  UNL1       -0.4048
     13 N         139.6418  140.2462  166.5559 N.pl3   1  UNL1       -0.2871
     14 H         139.8963  140.0895  167.4940 H       1  UNL1        0.1512
     15 C         138.4312  139.5697  165.9842 C.3     1  UNL1        0.0912
     16 C         138.5580  138.7170  164.7567 C.3     1  UNL1        0.0227
     17 C         139.5922  137.6320  164.7007 C.3     1  UNL1        0.0191
     18 C         140.6616  137.6687  163.6496 C.3     1  UNL1        0.0721
     19 N         141.9767  138.3291  163.9403 N.3     1  UNL1       -0.2727
     20 C         142.6444  139.1654  162.8892 C.3     1  UNL1        0.0721
     21 C         143.9595  139.8258  163.1797 C.3     1  UNL1        0.0174
     22 C         144.6069  139.6499  164.5214 C.3     1  UNL1        0.0029
     23 C         143.9391  138.8136  165.5724 C.3     1  UNL1        0.0174
     24 C         142.6241  138.1532  165.2818 C.3     1  UNL1        0.0721
     25 O         139.4625  143.9952  157.7184 O.2     1  UNL1       -0.2697
     26 C         140.3818  145.1682  157.5480 C.2     1  UNL1        0.2517
     27 N         141.2777  145.5889  158.6751 N.am    1  UNL1       -0.2803
     28 H         141.8810  146.3587  158.5632 H       1  UNL1        0.1552
     29 C         140.4051  145.9205  156.2505 C.ar    1  UNL1        0.0811
     30 C         141.1845  145.3843  155.0865 C.ar    1  UNL1        0.0068
     31 C         141.2078  146.1366  153.7891 C.ar    1  UNL1        0.0003
     32 C         140.4516  147.4251  153.6556 C.ar    1  UNL1        0.0023
     33 C         139.6722  147.9614  154.8196 C.ar    1  UNL1        0.0298
     34 C         139.6489  147.2091  156.1170 C.ar    1  UNL1        0.1445
     35 F         138.8695  147.7453  157.2811 F       1  UNL1       -0.2040
@<TRIPOS>BOND
     1    25    26    2
     2    26    27   am
     3    27     1    1
     4     1     2   ar
     5     2     3   ar
     6     3     4   ar
     7     4     8    1
     8     8     9   ar
     9     9    10   ar
    10    10    11   ar
    11    11    13    1
    12    13    15    1
    13    15    16    1
    14    16    17    1
    15    17    18    1
    16    18    19    1
    17    19    20    1
    18    20    21    1
    19    21    22    1
    20    22    23    1
    21    23    24    1
    22    11    12   ar
    23     4     5   ar
    24     5     6    1
    25     5     7   ar
    26    26    29    1
    27    29    30   ar
    28    30    31   ar
    29    31    32   ar
    30    32    33   ar
    31    33    34   ar
    32    34    35    1
    33     7     1   ar
    34    34    29   ar
    35    12     8   ar
    36    24    19    1
    37    27    28    1
    38    13    14    1
@<TRIPOS>MOLECULE
*****
 35 38 0 0 0
SMALL
GASTEIGER

@<TRIPOS>ATOM
      1 C         143.0887  139.2953  158.5032 C.ar    1  UNL1        0.0514
      2 C         143.2894  139.1269  159.9801 C.ar    1  UNL1        0.0149
      3 C         143.1318  140.3032  160.8974 C.ar    1  UNL1        0.0068
      4 C         142.7736  141.6480  160.3377 C.ar    1  UNL1        0.0658
      5 C         142.5729  141.8164  158.8608 C.ar    1  UNL1        0.0634
      6 CL        142.2146  143.1612  158.3012 Cl      1  UNL1       -0.0820
      7 C         142.7304  140.6401  157.9436 C.ar    1  UNL1        0.0262
      8 C         142.6160  142.8243  161.2551 C.ar    1  UNL1        0.2520
      9 N         143.6638  143.8549  161.5552 N.ar    1  UNL1       -0.1058
     10 N         143.0784  144.8441  162.5189 N.ar    1  UNL1       -0.0923
     11 C         141.6687  144.4249  162.8144 C.ar    1  UNL1        0.3086
     12 O         141.3830  143.1766  162.0333 O.2     1  UNL1       -0.4048
     13 N         140.7127  145.1301  163.7302 N.pl3   1  UNL1       -0.2871
     14 H         141.0386  145.8387  164.3310 H       1  UNL1        0.1512
     15 C         139.2602  144.7559  163.7305 C.3     1  UNL1        0.0912
     16 C         138.7560  143.7074  164.6774 C.3     1  UNL1        0.0227
     17 C         137.6796  142.7581  164.2413 C.3     1  UNL1        0.0191
     18 C         138.0159  141.6035  163.3449 C.3     1  UNL1        0.0721
     19 N         138.2998  140.2539  163.9347 N.3     1  UNL1       -0.2727
     20 C         138.6666  139.1068  163.0404 C.3     1  UNL1        0.0721
     21 C         138.9505  137.7570  163.6301 C.3     1  UNL1        0.0174
     22 C         138.8676  137.5544  165.1141 C.3     1  UNL1        0.0029
     23 C         138.5008  138.7016  166.0082 C.3     1  UNL1        0.0174
     24 C         138.2169  140.0513  165.4185 C.3     1  UNL1        0.0721
     25 O         140.6667  137.8140  157.5338 O.2     1  UNL1       -0.2697
     26 C         142.0353  137.3784  157.1012 C.2     1  UNL1        0.2517
     27 N         143.2463  138.1190  157.5859 N.am    1  UNL1       -0.2803
     28 H         144.1446  137.8330  157.3020 H       1  UNL1        0.1552
     29 C         142.1929  136.2020  156.1838 C.ar    1  UNL1        0.0811
     30 C         141.6986  136.2820  154.7699 C.ar    1  UNL1        0.0068
     31 C         141.8562  135.1057  153.8527 C.ar    1  UNL1        0.0003
     32 C         142.5081  133.8494  154.3493 C.ar    1  UNL1        0.0023
     33 C         143.0025  133.7694  155.7632 C.ar    1  UNL1        0.0298
     34 C         142.8449  134.9457  156.6805 C.ar    1  UNL1        0.1445
     35 F         143.3392  134.8657  158.0945 F       1  UNL1       -0.2040
@<TRIPOS>BOND
     1    25    26    2
     2    26    27   am
     3    27     1    1
     4     1     2   ar
     5     2     3   ar
     6     3     4   ar
     7     4     8    1
     8     8     9   ar
     9     9    10   ar
    10    10    11   ar
    11    11    13    1
    12    13    15    1
    13    15    16    1
    14    16    17    1
    15    17    18    1
    16    18    19    1
    17    19    20    1
    18    20    21    1
    19    21    22    1
    20    22    23    1
    21    23    24    1
    22    11    12   ar
    23     4     5   ar
    24     5     6    1
    25     5     7   ar
    26    26    29    1
    27    29    30   ar
    28    30    31   ar
    29    31    32   ar
    30    32    33   ar
    31    33    34   ar
    32    34    35    1
    33     7     1   ar
    34    34    29   ar
    35    12     8   ar
    36    24    19    1
    37    27    28    1
    38    13    14    1
@<TRIPOS>MOLECULE
*****
 35 38 0 0 0
SMALL
GASTEIGER

@<TRIPOS>ATOM
      1 C         142.5354  143.0375  170.4997 C.ar    1  UNL1        0.0514
      2 C         141.2951  143.5860  169.8590 C.ar    1  UNL1        0.0149
      3 C         140.3650  142.6703  169.1198 C.ar    1  UNL1        0.0068
      4 C         140.6754  141.2061  169.0213 C.ar    1  UNL1        0.0658
      5 C         141.9158  140.6576  169.6619 C.ar    1  UNL1        0.0634
      6 CL        142.2262  139.1933  169.5634 Cl      1  UNL1       -0.0820
      7 C         142.8458  141.5733  170.4012 C.ar    1  UNL1        0.0262
      8 C         139.7453  140.2903  168.2820 C.ar    1  UNL1        0.2520
      9 N         138.5590  139.5807  168.8645 N.ar    1  UNL1       -0.1058
     10 N         137.9188  138.7753  167.7730 N.ar    1  UNL1       -0.0923
     11 C         138.7094  138.9871  166.5160 C.ar    1  UNL1        0.3086
     12 O         139.8382  139.9234  166.8306 O.2     1  UNL1       -0.4048
     13 N         138.4216  138.3707  165.1790 N.pl3   1  UNL1       -0.2871
     14 H         137.4975  138.1361  164.9338 H       1  UNL1        0.1512
     15 C         139.5419  138.1118  164.2158 C.3     1  UNL1        0.0912
     16 C         140.8832  137.6744  164.7254 C.3     1  UNL1        0.0227
     17 C         142.1350  138.2477  164.1303 C.3     1  UNL1        0.0191
     18 C         143.2593  138.6819  165.0232 C.3     1  UNL1        0.0721
     19 N         143.6338  140.1321  165.1066 N.3     1  UNL1       -0.2727
     20 C         144.6556  140.6979  164.1655 C.3     1  UNL1        0.0721
     21 C         145.0302  142.1481  164.2487 C.3     1  UNL1        0.0174
     22 C         144.3830  143.0323  165.2730 C.3     1  UNL1        0.0029
     23 C         143.3611  142.4663  166.2140 C.3     1  UNL1        0.0174
     24 C         142.9866  141.0162  166.1308 C.3     1  UNL1        0.0721
     25 O         145.4053  143.2620  169.6548 O.2     1  UNL1       -0.2697
     26 C         144.9004  144.0655  170.8165 C.2     1  UNL1        0.2517
     27 N         143.4655  143.9533  171.2389 N.am    1  UNL1       -0.2803
     28 H         143.1342  144.4806  172.0014 H       1  UNL1        0.1552
     29 C         145.8305  144.9812  171.5557 C.ar    1  UNL1        0.0811
     30 C         145.4209  146.3958  171.8406 C.ar    1  UNL1        0.0068
     31 C         146.3510  147.3114  172.5798 C.ar    1  UNL1        0.0003
     32 C         147.6907  146.8125  173.0342 C.ar    1  UNL1        0.0023
     33 C         148.1002  145.3979  172.7493 C.ar    1  UNL1        0.0298
     34 C         147.1701  144.4823  172.0101 C.ar    1  UNL1        0.1445
     35 F         147.5797  143.0676  171.7252 F       1  UNL1       -0.2040
@<TRIPOS>BOND
     1    25    26    2
     2    26    27   am
     3    27     1    1
     4     1     2   ar
     5     2     3   ar
     6     3     4   ar
     7     4     8    1
     8     8     9   ar
     9     9    10   ar
    10    10    11   ar
    11    11    13    1
    12    13    15    1
    13    15    16    1
    14    16    17    1
    15    17    18    1
    16    18    19    1
    17    19    20    1
    18    20    21    1
    19    21    22    1
    20    22    23    1
    21    23    24    1
    22    11    12   ar
    23     4     5   ar
    24     5     6    1
    25     5     7   ar
    26    26    29    1
    27    29    30   ar
    28    30    31   ar
    29    31    32   ar
    30    32    33   ar
    31    33    34   ar
    32    34    35    1
    33     7     1   ar
    34    34    29   ar
    35    12     8   ar
    36    24    19    1
    37    27    28    1
    38    13    14    1
@<TRIPOS>MOLECULE
*****
 35 38 0 0 0
SMALL
GASTEIGER

@<TRIPOS>ATOM
      1 C         142.5815  138.8502  169.9401 C.ar    1  UNL1        0.0514
      2 C         143.0816  138.8629  168.5259 C.ar    1  UNL1        0.0149
      3 C         142.2609  139.5033  167.4460 C.ar    1  UNL1        0.0068
      4 C         140.9402  140.1310  167.7802 C.ar    1  UNL1        0.0658
      5 C         140.4401  140.1183  169.1943 C.ar    1  UNL1        0.0634
      6 CL        139.1194  140.7460  169.5285 Cl      1  UNL1       -0.0820
      7 C         141.2608  139.4779  170.2742 C.ar    1  UNL1        0.0262
      8 C         140.1195  140.7715  166.7002 C.ar    1  UNL1        0.2520
      9 N         140.0755  142.2357  166.3774 N.ar    1  UNL1       -0.1058
     10 N         139.1276  142.4294  165.2311 N.ar    1  UNL1       -0.0923
     11 C         138.5857  141.0848  164.8455 C.ar    1  UNL1        0.3086
     12 O         139.1988  140.0602  165.7534 O.2     1  UNL1       -0.4048
     13 N         137.6033  140.8127  163.7451 N.pl3   1  UNL1       -0.2871
     14 H         137.1623  139.9345  163.6850 H       1  UNL1        0.1512
     15 C         137.2928  141.8785  162.7364 C.3     1  UNL1        0.0912
     16 C         138.0362  141.9182  161.4342 C.3     1  UNL1        0.0227
     17 C         139.4736  141.4929  161.3779 C.3     1  UNL1        0.0191
     18 C         139.8214  140.0587  161.1097 C.3     1  UNL1        0.0721
     19 N         140.2942  139.1795  162.2293 N.3     1  UNL1       -0.2727
     20 C         139.4346  138.0471  162.7077 C.3     1  UNL1        0.0721
     21 C         139.9073  137.1678  163.8273 C.3     1  UNL1        0.0174
     22 C         141.2395  137.4209  164.4685 C.3     1  UNL1        0.0029
     23 C         142.0990  138.5534  163.9900 C.3     1  UNL1        0.0174
     24 C         141.6263  139.4326  162.8705 C.3     1  UNL1        0.0721
     25 O         144.3649  136.5268  169.2906 O.2     1  UNL1       -0.2697
     26 C         144.2939  137.0481  170.6953 C.2     1  UNL1        0.2517
     27 N         143.4022  138.2097  171.0201 N.am    1  UNL1       -0.2803
     28 H         143.3556  138.5518  171.9421 H       1  UNL1        0.1552
     29 C         145.1146  136.4076  171.7754 C.ar    1  UNL1        0.0811
     30 C         145.9654  137.2558  172.6735 C.ar    1  UNL1        0.0068
     31 C         146.7860  136.6153  173.7534 C.ar    1  UNL1        0.0003
     32 C         146.7558  135.1267  173.9352 C.ar    1  UNL1        0.0023
     33 C         145.9050  134.2785  173.0371 C.ar    1  UNL1        0.0298
     34 C         145.0844  134.9190  171.9572 C.ar    1  UNL1        0.1445
     35 F         144.2335  134.0708  171.0589 F       1  UNL1       -0.2040
@<TRIPOS>BOND
     1    25    26    2
     2    26    27   am
     3    27     1    1
     4     1     2   ar
     5     2     3   ar
     6     3     4   ar
     7     4     8    1
     8     8     9   ar
     9     9    10   ar
    10    10    11   ar
    11    11    13    1
    12    13    15    1
    13    15    16    1
    14    16    17    1
    15    17    18    1
    16    18    19    1
    17    19    20    1
    18    20    21    1
    19    21    22    1
    20    22    23    1
    21    23    24    1
    22    11    12   ar
    23     4     5   ar
    24     5     6    1
    25     5     7   ar
    26    26    29    1
    27    29    30   ar
    28    30    31   ar
    29    31    32   ar
    30    32    33   ar
    31    33    34   ar
    32    34    35    1
    33     7     1   ar
    34    34    29   ar
    35    12     8   ar
    36    24    19    1
    37    27    28    1
    38    13    14    1
