@<TRIPOS>MOLECULE
*****
 26 27 0 0 0
SMALL
GASTEIGER

@<TRIPOS>ATOM
      1 C         137.6489  141.5573  163.1852 C.ar    1  UNL1        0.1328
      2 N         137.5859  141.5767  161.6867 N.ar    1  UNL1       -0.1993
      3 C         137.9465  140.3483  160.9049 C.ar    1  UNL1        0.2148
      4 N         137.8835  140.3677  159.4063 N.pl3   1  UNL1       -0.3274
      5 N         138.3700  139.1006  161.6217 N.ar    1  UNL1       -0.2139
      6 C         138.4330  139.0812  163.1203 C.ar    1  UNL1        0.0870
      7 C         138.8565  137.8335  163.8370 C.ar    1  UNL1        0.0224
      8 C         138.9195  137.8141  165.3356 C.ar    1  UNL1        0.0384
      9 C         138.5589  139.0425  166.1173 C.ar    1  UNL1        0.1389
     10 C         138.1354  140.2902  165.4006 C.ar    1  UNL1        0.0412
     11 C         138.0725  140.3095  163.9021 C.ar    1  UNL1        0.0522
     12 H         137.6055  141.1867  158.9359 H       1  UNL1        0.1452
     13 H         138.1201  139.5615  158.8932 H       1  UNL1        0.1452
     14 N         137.2884  142.7857  163.9670 N.pl3   1  UNL1       -0.3195
     15 H         136.4371  142.8230  164.4601 H       1  UNL1        0.1481
     16 C         138.2248  143.9570  163.9974 C.3     1  UNL1        0.0729
     17 C         138.9203  144.3284  165.2734 C.3     1  UNL1        0.0196
     18 C         139.9133  143.3868  165.8878 C.3     1  UNL1        0.0017
     19 C         141.3596  141.9638  164.2651 C.3     1  UNL1        0.0000
     20 C         141.2223  143.1260  165.2033 C.3     1  UNL1        0.0001
     21 C         138.4657  144.7572  162.7516 C.3     1  UNL1        0.0512
     22 C         139.8610  145.1618  162.3783 C.3     1  UNL1        0.1389
     23 O         140.2270  146.6148  162.3081 O.3     1  UNL1       -0.3819
     24 H         139.7367  147.0372  161.5856 H       1  UNL1        0.2104
     25 O         138.6219  139.0230  167.6159 O.3     1  UNL1       -0.4714
     26 C         139.4893  140.0074  168.3429 C.3     1  UNL1        0.2525
@<TRIPOS>BOND
     1    19    20    1
     2    20    18    1
     3    18    17    1
     4    16    17    1
     5    16    21    1
     6    21    22    1
     7    22    23    1
     8    16    14    1
     9    14     1    1
    10     1     2   ar
    11     2     3   ar
    12     3     4    1
    13     3     5   ar
    14     5     6   ar
    15     6     7   ar
    16     7     8   ar
    17     8     9   ar
    18     9    25    1
    19    25    26    1
    20     9    10   ar
    21    10    11   ar
    22    11     1   ar
    23    11     6   ar
    24    23    24    1
    25    14    15    1
    26     4    12    1
    27     4    13    1
@<TRIPOS>MOLECULE
*****
 26 27 0 0 0
SMALL
GASTEIGER

@<TRIPOS>ATOM
      1 C         139.6854  140.4605  167.8709 C.ar    1  UNL1        0.1328
      2 N         138.7829  139.3235  168.2487 N.ar    1  UNL1       -0.1993
      3 C         137.8521  138.7346  167.2305 C.ar    1  UNL1        0.2148
      4 N         136.9496  137.5976  167.6083 N.pl3   1  UNL1       -0.3274
      5 N         137.8238  139.2826  165.8345 N.ar    1  UNL1       -0.2139
      6 C         138.7263  140.4197  165.4567 C.ar    1  UNL1        0.0870
      7 C         138.6980  140.9677  164.0607 C.ar    1  UNL1        0.0224
      8 C         139.6005  142.1047  163.6829 C.ar    1  UNL1        0.0384
      9 C         140.5313  142.6936  164.7011 C.ar    1  UNL1        0.1389
     10 C         140.5596  142.1456  166.0971 C.ar    1  UNL1        0.0412
     11 C         139.6571  141.0086  166.4749 C.ar    1  UNL1        0.0522
     12 H         136.9682  137.2379  168.5246 H       1  UNL1        0.1452
     13 H         136.3387  137.2110  166.9400 H       1  UNL1        0.1452
     14 N         140.6162  141.0495  168.8891 N.pl3   1  UNL1       -0.3195
     15 H         140.2685  141.6593  169.5794 H       1  UNL1        0.1481
     16 C         142.0767  140.7093  168.8556 C.3     1  UNL1        0.0729
     17 C         142.5284  139.3977  168.2850 C.3     1  UNL1        0.0196
     18 C         143.0749  139.3353  166.8894 C.3     1  UNL1        0.0017
     19 C         142.2550  139.1447  164.4315 C.3     1  UNL1        0.0000
     20 C         142.3267  138.5908  165.8236 C.3     1  UNL1        0.0001
     21 C         143.0856  141.6808  169.3928 C.3     1  UNL1        0.0512
     22 C         142.6890  142.6640  170.4539 C.3     1  UNL1        0.1389
     23 O         142.0134  142.1856  171.7047 O.3     1  UNL1       -0.3819
     24 H         141.1406  141.8250  171.4831 H       1  UNL1        0.2104
     25 O         141.4338  143.8307  164.3233 O.3     1  UNL1       -0.4714
     26 C         140.8791  145.0179  163.5935 C.3     1  UNL1        0.2525
@<TRIPOS>BOND
     1    19    20    1
     2    20    18    1
     3    18    17    1
     4    16    17    1
     5    16    21    1
     6    21    22    1
     7    22    23    1
     8    16    14    1
     9    14     1    1
    10     1     2   ar
    11     2     3   ar
    12     3     4    1
    13     3     5   ar
    14     5     6   ar
    15     6     7   ar
    16     7     8   ar
    17     8     9   ar
    18     9    25    1
    19    25    26    1
    20     9    10   ar
    21    10    11   ar
    22    11     1   ar
    23    11     6   ar
    24    23    24    1
    25    14    15    1
    26     4    12    1
    27     4    13    1
@<TRIPOS>MOLECULE
*****
 26 27 0 0 0
SMALL
GASTEIGER

@<TRIPOS>ATOM
      1 C         139.5958  140.6151  166.5005 C.ar    1  UNL1        0.1328
      2 N         139.3455  140.0501  167.8672 N.ar    1  UNL1       -0.1993
      3 C         140.3679  140.2266  168.9506 C.ar    1  UNL1        0.2148
      4 N         140.1176  139.6615  170.3174 N.pl3   1  UNL1       -0.3274
      5 N         141.6406  140.9682  168.6671 N.ar    1  UNL1       -0.2139
      6 C         141.8909  141.5333  167.3003 C.ar    1  UNL1        0.0870
      7 C         143.1636  142.2748  167.0169 C.ar    1  UNL1        0.0224
      8 C         143.4139  142.8398  165.6502 C.ar    1  UNL1        0.0384
      9 C         142.3915  142.6633  164.5668 C.ar    1  UNL1        0.1389
     10 C         141.1188  141.9218  164.8503 C.ar    1  UNL1        0.0412
     11 C         140.8686  141.3567  166.2170 C.ar    1  UNL1        0.0522
     12 H         139.2823  139.1748  170.5034 H       1  UNL1        0.1452
     13 H         140.7886  139.7774  171.0284 H       1  UNL1        0.1452
     14 N         138.5735  140.4386  165.4172 N.pl3   1  UNL1       -0.3195
     15 H         137.8416  141.0899  165.3202 H       1  UNL1        0.1481
     16 C         138.6661  139.2698  164.4817 C.3     1  UNL1        0.0729
     17 C         139.0323  137.9142  165.0091 C.3     1  UNL1        0.0196
     18 C         140.3608  137.3089  164.6641 C.3     1  UNL1        0.0017
     19 C         142.6171  138.2631  165.5293 C.3     1  UNL1        0.0000
     20 C         141.5586  138.1905  164.4690 C.3     1  UNL1        0.0001
     21 C         138.3927  139.4566  163.0186 C.3     1  UNL1        0.0512
     22 C         137.7656  140.7283  162.5292 C.3     1  UNL1        0.1389
     23 O         136.6155  141.3339  163.2779 O.3     1  UNL1       -0.3819
     24 H         135.8479  140.7432  163.2243 H       1  UNL1        0.2104
     25 O         142.6419  143.2284  163.2000 O.3     1  UNL1       -0.4714
     26 C         143.2198  144.6046  163.0518 C.3     1  UNL1        0.2525
@<TRIPOS>BOND
     1    19    20    1
     2    20    18    1
     3    18    17    1
     4    16    17    1
     5    16    21    1
     6    21    22    1
     7    22    23    1
     8    16    14    1
     9    14     1    1
    10     1     2   ar
    11     2     3   ar
    12     3     4    1
    13     3     5   ar
    14     5     6   ar
    15     6     7   ar
    16     7     8   ar
    17     8     9   ar
    18     9    25    1
    19    25    26    1
    20     9    10   ar
    21    10    11   ar
    22    11     1   ar
    23    11     6   ar
    24    23    24    1
    25    14    15    1
    26     4    12    1
    27     4    13    1
@<TRIPOS>MOLECULE
*****
 26 27 0 0 0
SMALL
GASTEIGER

@<TRIPOS>ATOM
      1 C         140.6160  141.6796  166.8666 C.ar    1  UNL1        0.1328
      2 N         140.5614  141.9776  168.3356 N.ar    1  UNL1       -0.1993
      3 C         139.7848  141.0816  169.2543 C.ar    1  UNL1        0.2148
      4 N         139.7303  141.3796  170.7235 N.pl3   1  UNL1       -0.3274
      5 N         139.0627  139.8876  168.7040 N.ar    1  UNL1       -0.2139
      6 C         139.1172  139.5895  167.2349 C.ar    1  UNL1        0.0870
      7 C         138.3951  138.3955  166.6845 C.ar    1  UNL1        0.0224
      8 C         138.4497  138.0976  165.2155 C.ar    1  UNL1        0.0384
      9 C         139.2263  138.9935  164.2968 C.ar    1  UNL1        0.1389
     10 C         139.9484  140.1875  164.8471 C.ar    1  UNL1        0.0412
     11 C         139.8938  140.4855  166.3161 C.ar    1  UNL1        0.0522
     12 H         140.2042  142.1633  171.0847 H       1  UNL1        0.1452
     13 H         139.2206  140.7916  171.3265 H       1  UNL1        0.1452
     14 N         141.3926  142.5756  165.9479 N.pl3   1  UNL1       -0.3195
     15 H         142.3742  142.5104  165.9104 H       1  UNL1        0.1481
     16 C         140.6736  143.5708  165.0862 C.3     1  UNL1        0.0729
     17 C         139.4080  144.2103  165.5752 C.3     1  UNL1        0.0196
     18 C         138.1585  144.1284  164.7492 C.3     1  UNL1        0.0017
     19 C         137.5888  142.3645  162.9287 C.3     1  UNL1        0.0000
     20 C         137.5986  142.7903  164.3669 C.3     1  UNL1        0.0001
     21 C         141.2203  143.9266  163.7353 C.3     1  UNL1        0.0512
     22 C         141.6754  145.3283  163.4559 C.3     1  UNL1        0.1389
     23 O         140.7700  146.2805  162.7325 O.3     1  UNL1       -0.3819
     24 H         140.6337  145.9699  161.8237 H       1  UNL1        0.2104
     25 O         139.2808  138.6955  162.8276 O.3     1  UNL1       -0.4714
     26 C         138.0209  138.7028  162.0136 C.3     1  UNL1        0.2525
@<TRIPOS>BOND
     1    19    20    1
     2    20    18    1
     3    18    17    1
     4    16    17    1
     5    16    21    1
     6    21    22    1
     7    22    23    1
     8    16    14    1
     9    14     1    1
    10     1     2   ar
    11     2     3   ar
    12     3     4    1
    13     3     5   ar
    14     5     6   ar
    15     6     7   ar
    16     7     8   ar
    17     8     9   ar
    18     9    25    1
    19    25    26    1
    20     9    10   ar
    21    10    11   ar
    22    11     1   ar
    23    11     6   ar
    24    23    24    1
    25    14    15    1
    26     4    12    1
    27     4    13    1
@<TRIPOS>MOLECULE
*****
 26 27 0 0 0
SMALL
GASTEIGER

@<TRIPOS>ATOM
      1 C         142.5015  142.2086  166.7222 C.ar    1  UNL1        0.1328
      2 N         143.5217  142.6504  167.7291 N.ar    1  UNL1       -0.1993
      3 C         143.3756  142.2540  169.1684 C.ar    1  UNL1        0.2148
      4 N         144.3959  142.6958  170.1753 N.pl3   1  UNL1       -0.3274
      5 N         142.2092  141.4159  169.6007 N.ar    1  UNL1       -0.2139
      6 C         141.1889  140.9740  168.5938 C.ar    1  UNL1        0.0870
      7 C         140.0225  140.1359  169.0262 C.ar    1  UNL1        0.0224
      8 C         139.0022  139.6941  168.0193 C.ar    1  UNL1        0.0384
      9 C         139.1484  140.0905  166.5800 C.ar    1  UNL1        0.1389
     10 C         140.3147  140.9287  166.1476 C.ar    1  UNL1        0.0412
     11 C         141.3350  141.3704  167.1545 C.ar    1  UNL1        0.0522
     12 H         145.1615  143.2459  169.8915 H       1  UNL1        0.1452
     13 H         144.3000  142.4357  171.1199 H       1  UNL1        0.1452
     14 N         142.6476  142.6050  165.2829 N.pl3   1  UNL1       -0.3195
     15 H         142.1717  143.3953  164.9392 H       1  UNL1        0.1481
     16 C         143.5188  141.7972  164.3673 C.3     1  UNL1        0.0729
     17 C         143.9148  140.4012  164.7470 C.3     1  UNL1        0.0196
     18 C         143.1397  139.2313  164.2170 C.3     1  UNL1        0.0017
     19 C         141.2841  137.4881  164.7343 C.3     1  UNL1        0.0000
     20 C         142.4882  138.2708  165.1672 C.3     1  UNL1        0.0001
     21 C         143.9941  142.3855  163.0718 C.3     1  UNL1        0.0512
     22 C         145.2076  141.8229  162.3931 C.3     1  UNL1        0.1389
     23 O         146.5304  141.8234  163.1003 O.3     1  UNL1       -0.3819
     24 H         146.8268  142.7377  163.2311 H       1  UNL1        0.2104
     25 O         138.1280  139.6487  165.5731 O.3     1  UNL1       -0.4714
     26 C         138.0918  140.2829  164.2143 C.3     1  UNL1        0.2525
@<TRIPOS>BOND
     1    19    20    1
     2    20    18    1
     3    18    17    1
     4    16    17    1
     5    16    21    1
     6    21    22    1
     7    22    23    1
     8    16    14    1
     9    14     1    1
    10     1     2   ar
    11     2     3   ar
    12     3     4    1
    13     3     5   ar
    14     5     6   ar
    15     6     7   ar
    16     7     8   ar
    17     8     9   ar
    18     9    25    1
    19    25    26    1
    20     9    10   ar
    21    10    11   ar
    22    11     1   ar
    23    11     6   ar
    24    23    24    1
    25    14    15    1
    26     4    12    1
    27     4    13    1
@<TRIPOS>MOLECULE
*****
 26 27 0 0 0
SMALL
GASTEIGER

@<TRIPOS>ATOM
      1 C         139.8862  143.5006  164.6190 C.ar    1  UNL1        0.1328
      2 N         138.6743  143.0823  163.8403 N.ar    1  UNL1       -0.1993
      3 C         138.0318  141.7538  164.1091 C.ar    1  UNL1        0.2148
      4 N         136.8199  141.3355  163.3304 N.pl3   1  UNL1       -0.3274
      5 N         138.6011  140.8436  165.1566 N.ar    1  UNL1       -0.2139
      6 C         139.8131  141.2619  165.9354 C.ar    1  UNL1        0.0870
      7 C         140.3824  140.3517  166.9829 C.ar    1  UNL1        0.0224
      8 C         141.5943  140.7700  167.7616 C.ar    1  UNL1        0.0384
      9 C         142.2368  142.0985  167.4928 C.ar    1  UNL1        0.1389
     10 C         141.6674  143.0087  166.4453 C.ar    1  UNL1        0.0412
     11 C         140.4556  142.5904  165.6666 C.ar    1  UNL1        0.0522
     12 H         136.4462  141.9330  162.6428 H       1  UNL1        0.1452
     13 H         136.3982  140.4636  163.5068 H       1  UNL1        0.1452
     14 N         140.5287  144.8291  164.3502 N.pl3   1  UNL1       -0.3195
     15 H         140.2504  145.6230  164.8615 H       1  UNL1        0.1481
     16 C         141.5953  144.9480  163.3022 C.3     1  UNL1        0.0729
     17 C         143.0284  145.1268  163.7075 C.3     1  UNL1        0.0196
     18 C         144.0622  144.1337  163.2657 C.3     1  UNL1        0.0017
     19 C         145.4426  141.9781  163.7101 C.3     1  UNL1        0.0000
     20 C         144.4723  143.0197  164.1826 C.3     1  UNL1        0.0001
     21 C         141.2288  144.8882  161.8488 C.3     1  UNL1        0.0512
     22 C         140.0651  145.6834  161.3355 C.3     1  UNL1        0.1389
     23 O         138.7267  145.5707  162.0033 O.3     1  UNL1       -0.3819
     24 H         138.3780  144.6741  161.8792 H       1  UNL1        0.2104
     25 O         143.4487  142.5167  168.2715 O.3     1  UNL1       -0.4714
     26 C         143.5512  142.1904  169.7320 C.3     1  UNL1        0.2525
@<TRIPOS>BOND
     1    19    20    1
     2    20    18    1
     3    18    17    1
     4    16    17    1
     5    16    21    1
     6    21    22    1
     7    22    23    1
     8    16    14    1
     9    14     1    1
    10     1     2   ar
    11     2     3   ar
    12     3     4    1
    13     3     5   ar
    14     5     6   ar
    15     6     7   ar
    16     7     8   ar
    17     8     9   ar
    18     9    25    1
    19    25    26    1
    20     9    10   ar
    21    10    11   ar
    22    11     1   ar
    23    11     6   ar
    24    23    24    1
    25    14    15    1
    26     4    12    1
    27     4    13    1
@<TRIPOS>MOLECULE
*****
 26 27 0 0 0
SMALL
GASTEIGER

@<TRIPOS>ATOM
      1 C         142.7258  139.4565  166.3533 C.ar    1  UNL1        0.1328
      2 N         143.0703  138.7936  167.6540 N.ar    1  UNL1       -0.1993
      3 C         142.5669  139.3680  168.9450 C.ar    1  UNL1        0.2148
      4 N         142.9114  138.7050  170.2458 N.pl3   1  UNL1       -0.3274
      5 N         141.7190  140.6053  168.9353 N.ar    1  UNL1       -0.2139
      6 C         141.3745  141.2683  167.6346 C.ar    1  UNL1        0.0870
      7 C         140.5266  142.5056  167.6249 C.ar    1  UNL1        0.0224
      8 C         140.1821  143.1685  166.3242 C.ar    1  UNL1        0.0384
      9 C         140.6855  142.5941  165.0332 C.ar    1  UNL1        0.1389
     10 C         141.5334  141.3568  165.0429 C.ar    1  UNL1        0.0412
     11 C         141.8779  140.6939  166.3436 C.ar    1  UNL1        0.0522
     12 H         143.4679  137.8929  170.2521 H       1  UNL1        0.1452
     13 H         142.5811  139.0820  171.0931 H       1  UNL1        0.1452
     14 N         143.2291  138.8821  165.0623 N.pl3   1  UNL1       -0.3195
     15 H         144.1767  138.9832  164.8149 H       1  UNL1        0.1481
     16 C         142.2889  138.1538  164.1484 C.3     1  UNL1        0.0729
     17 C         141.1615  137.3466  164.7206 C.3     1  UNL1        0.0196
     18 C         139.7436  137.7973  164.5287 C.3     1  UNL1        0.0017
     19 C         138.2486  139.7015  165.4715 C.3     1  UNL1        0.0000
     20 C         138.9916  138.4138  165.6708 C.3     1  UNL1        0.0001
     21 C         142.4760  138.2326  162.6621 C.3     1  UNL1        0.0512
     22 C         143.8533  138.3795  162.0864 C.3     1  UNL1        0.1389
     23 O         144.7486  139.4871  162.5570 O.3     1  UNL1       -0.3819
     24 H         144.3712  140.3414  162.2951 H       1  UNL1        0.2104
     25 O         140.3410  143.2571  163.7325 O.3     1  UNL1       -0.4714
     26 C         141.0250  144.5318  163.3361 C.3     1  UNL1        0.2525
@<TRIPOS>BOND
     1    19    20    1
     2    20    18    1
     3    18    17    1
     4    16    17    1
     5    16    21    1
     6    21    22    1
     7    22    23    1
     8    16    14    1
     9    14     1    1
    10     1     2   ar
    11     2     3   ar
    12     3     4    1
    13     3     5   ar
    14     5     6   ar
    15     6     7   ar
    16     7     8   ar
    17     8     9   ar
    18     9    25    1
    19    25    26    1
    20     9    10   ar
    21    10    11   ar
    22    11     1   ar
    23    11     6   ar
    24    23    24    1
    25    14    15    1
    26     4    12    1
    27     4    13    1
@<TRIPOS>MOLECULE
*****
 26 27 0 0 0
SMALL
GASTEIGER

@<TRIPOS>ATOM
      1 C         141.9581  138.4930  164.3357 C.ar    1  UNL1        0.1328
      2 N         140.9969  137.9762  163.3067 N.ar    1  UNL1       -0.1993
      3 C         139.5191  138.0717  163.5458 C.ar    1  UNL1        0.2148
      4 N         138.5579  137.5549  162.5167 N.pl3   1  UNL1       -0.3274
      5 N         139.0026  138.6840  164.8140 N.ar    1  UNL1       -0.2139
      6 C         139.9639  139.2008  165.8431 C.ar    1  UNL1        0.0870
      7 C         139.4473  139.8130  167.1113 C.ar    1  UNL1        0.0224
      8 C         140.4086  140.3298  168.1403 C.ar    1  UNL1        0.0384
      9 C         141.8863  140.2344  167.9012 C.ar    1  UNL1        0.1389
     10 C         142.4028  139.6221  166.6330 C.ar    1  UNL1        0.0412
     11 C         141.4416  139.1053  165.6040 C.ar    1  UNL1        0.0522
     12 H         138.8969  137.1530  161.6844 H       1  UNL1        0.1452
     13 H         137.5880  137.6175  162.6737 H       1  UNL1        0.1452
     14 N         143.4358  138.3975  164.0966 N.pl3   1  UNL1       -0.3195
     15 H         143.9320  137.6008  164.3935 H       1  UNL1        0.1481
     16 C         144.1575  139.5160  163.4050 C.3     1  UNL1        0.0729
     17 C         145.1275  140.3680  164.1686 C.3     1  UNL1        0.0196
     18 C         145.5002  141.7264  163.6527 C.3     1  UNL1        0.0017
     19 C         144.3026  143.2222  165.4072 C.3     1  UNL1        0.0000
     20 C         144.6437  142.9137  163.9795 C.3     1  UNL1        0.0001
     21 C         143.9091  139.7824  161.9499 C.3     1  UNL1        0.0512
     22 C         143.9826  138.6591  160.9585 C.3     1  UNL1        0.1389
     23 O         143.2690  137.3687  161.2330 O.3     1  UNL1       -0.3819
     24 H         143.6711  136.9339  162.0012 H       1  UNL1        0.2104
     25 O         142.8475  140.7512  168.9303 O.3     1  UNL1       -0.4714
     26 C         143.0841  142.2265  169.0615 C.3     1  UNL1        0.2525
@<TRIPOS>BOND
     1    19    20    1
     2    20    18    1
     3    18    17    1
     4    16    17    1
     5    16    21    1
     6    21    22    1
     7    22    23    1
     8    16    14    1
     9    14     1    1
    10     1     2   ar
    11     2     3   ar
    12     3     4    1
    13     3     5   ar
    14     5     6   ar
    15     6     7   ar
    16     7     8   ar
    17     8     9   ar
    18     9    25    1
    19    25    26    1
    20     9    10   ar
    21    10    11   ar
    22    11     1   ar
    23    11     6   ar
    24    23    24    1
    25    14    15    1
    26     4    12    1
    27     4    13    1
@<TRIPOS>MOLECULE
*****
 26 27 0 0 0
SMALL
GASTEIGER

@<TRIPOS>ATOM
      1 C         142.5056  141.9499  167.3223 C.ar    1  UNL1        0.1328
      2 N         143.6361  142.5776  168.0824 N.ar    1  UNL1       -0.1993
      3 C         143.6648  142.5044  169.5803 C.ar    1  UNL1        0.2148
      4 N         144.7954  143.1321  170.3405 N.pl3   1  UNL1       -0.3274
      5 N         142.5629  141.8035  170.3182 N.ar    1  UNL1       -0.2139
      6 C         141.4322  141.1757  169.5581 C.ar    1  UNL1        0.0870
      7 C         140.3303  140.4748  170.2959 C.ar    1  UNL1        0.0224
      8 C         139.1997  139.8471  169.5358 C.ar    1  UNL1        0.0384
      9 C         139.1711  139.9204  168.0379 C.ar    1  UNL1        0.1389
     10 C         140.2730  140.6213  167.3000 C.ar    1  UNL1        0.0412
     11 C         141.4036  141.2490  168.0601 C.ar    1  UNL1        0.0522
     12 H         145.5187  143.5921  169.8562 H       1  UNL1        0.1452
     13 H         144.8142  143.0840  171.3236 H       1  UNL1        0.1452
     14 N         142.4769  142.0232  165.8244 N.pl3   1  UNL1       -0.3195
     15 H         141.6359  141.8593  165.3395 H       1  UNL1        0.1481
     16 C         143.7296  142.3461  165.0652 C.3     1  UNL1        0.0729
     17 C         144.1635  143.7731  164.9062 C.3     1  UNL1        0.0196
     18 C         143.6725  144.5810  163.7415 C.3     1  UNL1        0.0017
     19 C         141.0757  144.6483  163.6993 C.3     1  UNL1        0.0000
     20 C         142.3911  145.3530  163.8512 C.3     1  UNL1        0.0001
     21 C         144.5485  141.2419  164.4649 C.3     1  UNL1        0.0512
     22 C         145.8529  141.5552  163.7938 C.3     1  UNL1        0.1389
     23 O         145.8696  142.0258  162.3697 O.3     1  UNL1       -0.3819
     24 H         145.5558  141.3139  161.7903 H       1  UNL1        0.2104
     25 O         138.0404  139.2927  167.2778 O.3     1  UNL1       -0.4714
     26 C         138.2827  138.7138  165.9154 C.3     1  UNL1        0.2525
@<TRIPOS>BOND
     1    19    20    1
     2    20    18    1
     3    18    17    1
     4    16    17    1
     5    16    21    1
     6    21    22    1
     7    22    23    1
     8    16    14    1
     9    14     1    1
    10     1     2   ar
    11     2     3   ar
    12     3     4    1
    13     3     5   ar
    14     5     6   ar
    15     6     7   ar
    16     7     8   ar
    17     8     9   ar
    18     9    25    1
    19    25    26    1
    20     9    10   ar
    21    10    11   ar
    22    11     1   ar
    23    11     6   ar
    24    23    24    1
    25    14    15    1
    26     4    12    1
    27     4    13    1
