@<TRIPOS>MOLECULE
*****
 20 21 0 0 0
SMALL
GASTEIGER

@<TRIPOS>ATOM
      1 C         142.5329  144.0869  164.1506 C.ar    1  UNL1        0.0287
      2 C         141.9798  144.9772  163.0776 C.ar    1  UNL1        0.0068
      3 C         140.4973  145.1689  162.9525 C.ar    1  UNL1        0.0345
      4 BR        139.9442  146.0592  161.8794 Br      1  UNL1       -0.0490
      5 C         139.5681  144.4703  163.9003 C.ar    1  UNL1        0.0098
      6 C         140.1213  143.5800  164.9733 C.ar    1  UNL1        0.0377
      7 C         141.6037  143.3883  165.0984 C.ar    1  UNL1        0.1426
      8 C         144.0154  143.8951  164.2757 C.3     1  UNL1        0.0987
      9 C         145.4906  141.9305  163.4306 C.3     1  UNL1        0.0861
     10 N         144.5801  142.5188  164.4674 N.3     1  UNL1       -0.2925
     11 H         145.1024  142.5343  165.3434 H       1  UNL1        0.1236
     12 O         142.1569  142.4979  166.1714 O.3     1  UNL1       -0.4537
     13 C         141.2410  141.9079  167.2024 C.ar    1  UNL1        0.1462
     14 C         140.6441  140.5488  166.9856 C.ar    1  UNL1        0.0384
     15 C         139.7283  139.9588  168.0166 C.ar    1  UNL1        0.0154
     16 C         139.4092  140.7277  169.2644 C.ar    1  UNL1        0.0684
     17 CL        138.4933  140.1376  170.2954 Cl      1  UNL1       -0.0814
     18 C         140.0060  142.0866  169.4812 C.ar    1  UNL1        0.0712
     19 CL        139.6869  142.8555  170.7290 Cl      1  UNL1       -0.0813
     20 C         140.9219  142.6767  168.4502 C.ar    1  UNL1        0.0497
@<TRIPOS>BOND
     1     9    10    1
     2    10     8    1
     3     8     1    1
     4     1     2   ar
     5     2     3   ar
     6     3     4    1
     7     3     5   ar
     8     5     6   ar
     9     6     7   ar
    10     7    12    1
    11    12    13    1
    12    13    14   ar
    13    14    15   ar
    14    15    16   ar
    15    16    17    1
    16    16    18   ar
    17    18    19    1
    18    18    20   ar
    19     7     1   ar
    20    20    13   ar
    21    10    11    1
@<TRIPOS>MOLECULE
*****
 20 21 0 0 0
SMALL
GASTEIGER

@<TRIPOS>ATOM
      1 C         138.8394  143.0128  163.8620 C.ar    1  UNL1        0.0287
      2 C         138.6780  144.2186  162.9846 C.ar    1  UNL1        0.0068
      3 C         139.8748  145.0456  162.6188 C.ar    1  UNL1        0.0345
      4 BR        139.7134  146.2514  161.7413 Br      1  UNL1       -0.0490
      5 C         141.2329  144.6668  163.1305 C.ar    1  UNL1        0.0098
      6 C         141.3943  143.4610  164.0080 C.ar    1  UNL1        0.0377
      7 C         140.1975  142.6340  164.3738 C.ar    1  UNL1        0.1426
      8 C         137.6426  142.1858  164.2278 C.3     1  UNL1        0.0987
      9 C         137.6516  140.7274  162.0777 C.3     1  UNL1        0.0861
     10 N         136.8976  141.4337  163.1652 N.3     1  UNL1       -0.2925
     11 H         136.3378  140.7269  163.6423 H       1  UNL1        0.1236
     12 O         140.3590  141.4282  165.2513 O.3     1  UNL1       -0.4537
     13 C         140.8728  141.5833  166.6520 C.ar    1  UNL1        0.1462
     14 C         141.8809  140.6131  167.1928 C.ar    1  UNL1        0.0384
     15 C         142.3947  140.7682  168.5935 C.ar    1  UNL1        0.0154
     16 C         141.9004  141.8935  169.4534 C.ar    1  UNL1        0.0684
     17 CL        142.4142  142.0486  170.8540 Cl      1  UNL1       -0.0814
     18 C         140.8923  142.8637  168.9126 C.ar    1  UNL1        0.0712
     19 CL        140.3980  143.9890  169.7725 Cl      1  UNL1       -0.0813
     20 C         140.3785  142.7086  167.5118 C.ar    1  UNL1        0.0497
@<TRIPOS>BOND
     1     9    10    1
     2    10     8    1
     3     8     1    1
     4     1     2   ar
     5     2     3   ar
     6     3     4    1
     7     3     5   ar
     8     5     6   ar
     9     6     7   ar
    10     7    12    1
    11    12    13    1
    12    13    14   ar
    13    14    15   ar
    14    15    16   ar
    15    16    17    1
    16    16    18   ar
    17    18    19    1
    18    18    20   ar
    19     7     1   ar
    20    20    13   ar
    21    10    11    1
@<TRIPOS>MOLECULE
*****
 20 21 0 0 0
SMALL
GASTEIGER

@<TRIPOS>ATOM
      1 C         141.6790  139.4412  166.8373 C.ar    1  UNL1        0.0287
      2 C         142.5829  139.5695  168.0275 C.ar    1  UNL1        0.0068
      3 C         142.0084  139.8987  169.3735 C.ar    1  UNL1        0.0345
      4 BR        142.9123  140.0271  170.5637 Br      1  UNL1       -0.0490
      5 C         140.5302  140.0996  169.5292 C.ar    1  UNL1        0.0098
      6 C         139.6263  139.9713  168.3391 C.ar    1  UNL1        0.0377
      7 C         140.2008  139.6421  166.9931 C.ar    1  UNL1        0.1426
      8 C         142.2535  139.1120  165.4913 C.3     1  UNL1        0.0987
      9 C         141.4195  138.0376  163.2777 C.3     1  UNL1        0.0861
     10 N         141.7544  137.9168  164.7348 N.3     1  UNL1       -0.2925
     11 H         142.4735  137.1975  164.8130 H       1  UNL1        0.1236
     12 O         139.2968  139.5137  165.8029 O.3     1  UNL1       -0.4537
     13 C         138.8601  140.7397  165.0571 C.ar    1  UNL1        0.1462
     14 C         137.8983  140.6184  163.9124 C.ar    1  UNL1        0.0384
     15 C         137.4616  141.8444  163.1667 C.ar    1  UNL1        0.0154
     16 C         137.9865  143.1917  163.5656 C.ar    1  UNL1        0.0684
     17 CL        137.5498  144.4177  162.8199 Cl      1  UNL1       -0.0814
     18 C         138.9482  143.3130  164.7103 C.ar    1  UNL1        0.0712
     19 CL        139.4732  144.6603  165.1092 Cl      1  UNL1       -0.0813
     20 C         139.3851  142.0870  165.4561 C.ar    1  UNL1        0.0497
@<TRIPOS>BOND
     1     9    10    1
     2    10     8    1
     3     8     1    1
     4     1     2   ar
     5     2     3   ar
     6     3     4    1
     7     3     5   ar
     8     5     6   ar
     9     6     7   ar
    10     7    12    1
    11    12    13    1
    12    13    14   ar
    13    14    15   ar
    14    15    16   ar
    15    16    17    1
    16    16    18   ar
    17    18    19    1
    18    18    20   ar
    19     7     1   ar
    20    20    13   ar
    21    10    11    1
@<TRIPOS>MOLECULE
*****
 20 21 0 0 0
SMALL
GASTEIGER

@<TRIPOS>ATOM
      1 C         142.3599  138.3448  162.9026 C.ar    1  UNL1        0.0287
      2 C         141.2910  138.2339  161.8561 C.ar    1  UNL1        0.0068
      3 C         139.8484  138.1672  162.2617 C.ar    1  UNL1        0.0345
      4 BR        138.7795  138.0563  161.2151 Br      1  UNL1       -0.0490
      5 C         139.4747  138.2114  163.7137 C.ar    1  UNL1        0.0098
      6 C         140.5436  138.3223  164.7601 C.ar    1  UNL1        0.0377
      7 C         141.9862  138.3890  164.3546 C.ar    1  UNL1        0.1426
      8 C         143.8025  138.4115  162.4971 C.3     1  UNL1        0.0987
      9 C         144.8411  140.7766  162.7756 C.3     1  UNL1        0.0861
     10 N         144.7388  139.3437  163.2072 N.3     1  UNL1       -0.2925
     11 H         144.4594  139.3509  164.1881 H       1  UNL1        0.1236
     12 O         143.0551  138.4999  165.4012 O.3     1  UNL1       -0.4537
     13 C         142.9688  139.5677  166.4511 C.ar    1  UNL1        0.1462
     14 C         143.0396  141.0136  166.0580 C.ar    1  UNL1        0.0384
     15 C         142.9534  142.0813  167.1080 C.ar    1  UNL1        0.0154
     16 C         142.7963  141.7033  168.5510 C.ar    1  UNL1        0.0684
     17 CL        142.7100  142.7710  169.6009 Cl      1  UNL1       -0.0814
     18 C         142.7255  140.2575  168.9441 C.ar    1  UNL1        0.0712
     19 CL        142.5684  139.8794  170.3872 Cl      1  UNL1       -0.0813
     20 C         142.8117  139.1896  167.8942 C.ar    1  UNL1        0.0497
@<TRIPOS>BOND
     1     9    10    1
     2    10     8    1
     3     8     1    1
     4     1     2   ar
     5     2     3   ar
     6     3     4    1
     7     3     5   ar
     8     5     6   ar
     9     6     7   ar
    10     7    12    1
    11    12    13    1
    12    13    14   ar
    13    14    15   ar
    14    15    16   ar
    15    16    17    1
    16    16    18   ar
    17    18    19    1
    18    18    20   ar
    19     7     1   ar
    20    20    13   ar
    21    10    11    1
@<TRIPOS>MOLECULE
*****
 20 21 0 0 0
SMALL
GASTEIGER

@<TRIPOS>ATOM
      1 C         138.4783  143.0307  163.7235 C.ar    1  UNL1        0.0287
      2 C         138.5869  144.1192  162.6972 C.ar    1  UNL1        0.0068
      3 C         139.7336  145.0849  162.7466 C.ar    1  UNL1        0.0345
      4 BR        139.8421  146.1735  161.7203 Br      1  UNL1       -0.0490
      5 C         140.7717  144.9622  163.8223 C.ar    1  UNL1        0.0098
      6 C         140.6631  143.8737  164.8486 C.ar    1  UNL1        0.0377
      7 C         139.5164  142.9080  164.7992 C.ar    1  UNL1        0.1426
      8 C         137.3316  142.0650  163.6741 C.3     1  UNL1        0.0987
      9 C         138.1158  139.7666  162.7510 C.3     1  UNL1        0.0861
     10 N         137.5764  140.5990  163.8762 N.3     1  UNL1       -0.2925
     11 H         138.2378  140.5146  164.6482 H       1  UNL1        0.1236
     12 O         139.4078  141.8194  165.8256 O.3     1  UNL1       -0.4537
     13 C         140.5409  140.8559  166.0197 C.ar    1  UNL1        0.1462
     14 C         141.1896  140.2116  164.8304 C.ar    1  UNL1        0.0384
     15 C         142.3226  139.2480  165.0245 C.ar    1  UNL1        0.0154
     16 C         142.8071  138.9287  166.4077 C.ar    1  UNL1        0.0684
     17 CL        143.9401  137.9652  166.6017 Cl      1  UNL1       -0.0814
     18 C         142.1585  139.5729  167.5969 C.ar    1  UNL1        0.0712
     19 CL        142.6429  139.2536  168.9801 Cl      1  UNL1       -0.0813
     20 C         141.0253  140.5365  167.4029 C.ar    1  UNL1        0.0497
@<TRIPOS>BOND
     1     9    10    1
     2    10     8    1
     3     8     1    1
     4     1     2   ar
     5     2     3   ar
     6     3     4    1
     7     3     5   ar
     8     5     6   ar
     9     6     7   ar
    10     7    12    1
    11    12    13    1
    12    13    14   ar
    13    14    15   ar
    14    15    16   ar
    15    16    17    1
    16    16    18   ar
    17    18    19    1
    18    18    20   ar
    19     7     1   ar
    20    20    13   ar
    21    10    11    1
@<TRIPOS>MOLECULE
*****
 20 21 0 0 0
SMALL
GASTEIGER

@<TRIPOS>ATOM
      1 C         138.7031  140.3821  164.5368 C.ar    1  UNL1        0.0287
      2 C         138.7091  139.9918  163.0885 C.ar    1  UNL1        0.0068
      3 C         138.9706  138.5677  162.6966 C.ar    1  UNL1        0.0345
      4 BR        138.9766  138.1774  161.2482 Br      1  UNL1       -0.0490
      5 C         139.2262  137.5339  163.7530 C.ar    1  UNL1        0.0098
      6 C         139.2202  137.9243  165.2013 C.ar    1  UNL1        0.0377
      7 C         138.9587  139.3484  165.5932 C.ar    1  UNL1        0.1426
      8 C         138.4416  141.8062  164.9287 C.3     1  UNL1        0.0987
      9 C         137.7412  143.6862  163.2779 C.3     1  UNL1        0.0861
     10 N         137.3692  142.5908  164.2327 N.3     1  UNL1       -0.2925
     11 H         136.8078  141.9204  163.7075 H       1  UNL1        0.1236
     12 O         138.9527  139.7387  167.0415 O.3     1  UNL1       -0.4537
     13 C         140.1637  140.3813  167.6501 C.ar    1  UNL1        0.1462
     14 C         141.5173  139.7643  167.4566 C.ar    1  UNL1        0.0384
     15 C         142.7283  140.4069  168.0652 C.ar    1  UNL1        0.0154
     16 C         142.5859  141.6664  168.8673 C.ar    1  UNL1        0.0684
     17 CL        143.7970  142.3090  169.4759 Cl      1  UNL1       -0.0814
     18 C         141.2325  142.2834  169.0608 C.ar    1  UNL1        0.0712
     19 CL        141.0900  143.5429  169.8629 Cl      1  UNL1       -0.0813
     20 C         140.0213  141.6408  168.4522 C.ar    1  UNL1        0.0497
@<TRIPOS>BOND
     1     9    10    1
     2    10     8    1
     3     8     1    1
     4     1     2   ar
     5     2     3   ar
     6     3     4    1
     7     3     5   ar
     8     5     6   ar
     9     6     7   ar
    10     7    12    1
    11    12    13    1
    12    13    14   ar
    13    14    15   ar
    14    15    16   ar
    15    16    17    1
    16    16    18   ar
    17    18    19    1
    18    18    20   ar
    19     7     1   ar
    20    20    13   ar
    21    10    11    1
@<TRIPOS>MOLECULE
*****
 20 21 0 0 0
SMALL
GASTEIGER

@<TRIPOS>ATOM
      1 C         140.6905  140.2427  166.8663 C.ar    1  UNL1        0.0287
      2 C         141.6964  140.0047  167.9532 C.ar    1  UNL1        0.0068
      3 C         142.0546  141.1122  168.8993 C.ar    1  UNL1        0.0345
      4 BR        143.0606  140.8742  169.9862 Br      1  UNL1       -0.0490
      5 C         141.4068  142.4578  168.7585 C.ar    1  UNL1        0.0098
      6 C         140.4009  142.6958  167.6716 C.ar    1  UNL1        0.0377
      7 C         140.0427  141.5883  166.7255 C.ar    1  UNL1        0.1426
      8 C         140.3323  139.1352  165.9202 C.3     1  UNL1        0.0987
      9 C         137.9152  138.5630  166.6817 C.3     1  UNL1        0.0861
     10 N         138.8942  138.8689  165.5873 N.3     1  UNL1       -0.2925
     11 H         138.5459  139.6965  165.1034 H       1  UNL1        0.1236
     12 O         139.0367  141.8263  165.6386 O.3     1  UNL1       -0.4537
     13 C         139.2165  142.9728  164.6882 C.ar    1  UNL1        0.1462
     14 C         138.0521  143.4696  163.8835 C.ar    1  UNL1        0.0384
     15 C         138.2319  144.6161  162.9331 C.ar    1  UNL1        0.0154
     16 C         139.5760  145.2659  162.7875 C.ar    1  UNL1        0.0684
     17 CL        139.7558  146.4124  161.8372 Cl      1  UNL1       -0.0814
     18 C         140.7403  144.7692  163.5922 C.ar    1  UNL1        0.0712
     19 CL        142.0844  145.4190  163.4466 Cl      1  UNL1       -0.0813
     20 C         140.5606  143.6226  164.5426 C.ar    1  UNL1        0.0497
@<TRIPOS>BOND
     1     9    10    1
     2    10     8    1
     3     8     1    1
     4     1     2   ar
     5     2     3   ar
     6     3     4    1
     7     3     5   ar
     8     5     6   ar
     9     6     7   ar
    10     7    12    1
    11    12    13    1
    12    13    14   ar
    13    14    15   ar
    14    15    16   ar
    15    16    17    1
    16    16    18   ar
    17    18    19    1
    18    18    20   ar
    19     7     1   ar
    20    20    13   ar
    21    10    11    1
@<TRIPOS>MOLECULE
*****
 20 21 0 0 0
SMALL
GASTEIGER

@<TRIPOS>ATOM
      1 C         139.8513  138.2323  164.2784 C.ar    1  UNL1        0.0287
      2 C         138.6826  137.7953  165.1109 C.ar    1  UNL1        0.0068
      3 C         138.4339  138.4308  166.4467 C.ar    1  UNL1        0.0345
      4 BR        137.2652  137.9938  167.2793 Br      1  UNL1       -0.0490
      5 C         139.3540  139.5032  166.9500 C.ar    1  UNL1        0.0098
      6 C         140.5227  139.9402  166.1174 C.ar    1  UNL1        0.0377
      7 C         140.7713  139.3047  164.7816 C.ar    1  UNL1        0.1426
      8 C         140.0999  137.5968  162.9426 C.3     1  UNL1        0.0987
      9 C         142.1627  137.6906  161.3659 C.3     1  UNL1        0.0861
     10 N         141.4786  137.1318  162.5782 N.3     1  UNL1       -0.2925
     11 H         142.0793  137.3377  163.3764 H       1  UNL1        0.1236
     12 O         141.9401  139.7417  163.9491 O.3     1  UNL1       -0.4537
     13 C         142.4379  141.1539  164.0379 C.ar    1  UNL1        0.1462
     14 C         143.7723  141.4410  164.6601 C.ar    1  UNL1        0.0384
     15 C         144.2701  142.8532  164.7489 C.ar    1  UNL1        0.0154
     16 C         143.4336  143.9783  164.2155 C.ar    1  UNL1        0.0684
     17 CL        143.9314  145.3904  164.3044 Cl      1  UNL1       -0.0814
     18 C         142.0993  143.6912  163.5934 C.ar    1  UNL1        0.0712
     19 CL        141.2628  144.8163  163.0600 Cl      1  UNL1       -0.0813
     20 C         141.6014  142.2789  163.5045 C.ar    1  UNL1        0.0497
@<TRIPOS>BOND
     1     9    10    1
     2    10     8    1
     3     8     1    1
     4     1     2   ar
     5     2     3   ar
     6     3     4    1
     7     3     5   ar
     8     5     6   ar
     9     6     7   ar
    10     7    12    1
    11    12    13    1
    12    13    14   ar
    13    14    15   ar
    14    15    16   ar
    15    16    17    1
    16    16    18   ar
    17    18    19    1
    18    18    20   ar
    19     7     1   ar
    20    20    13   ar
    21    10    11    1
@<TRIPOS>MOLECULE
*****
 20 21 0 0 0
SMALL
GASTEIGER

@<TRIPOS>ATOM
      1 C         140.5901  140.4662  166.7849 C.ar    1  UNL1        0.0287
      2 C         139.7441  139.9241  167.8986 C.ar    1  UNL1        0.0068
      3 C         139.5408  140.7306  169.1469 C.ar    1  UNL1        0.0345
      4 BR        138.6948  140.1885  170.2606 Br      1  UNL1       -0.0490
      5 C         140.1836  142.0792  169.2815 C.ar    1  UNL1        0.0098
      6 C         141.0296  142.6212  168.1678 C.ar    1  UNL1        0.0377
      7 C         141.2329  141.8147  166.9195 C.ar    1  UNL1        0.1426
      8 C         140.7933  139.6597  165.5366 C.3     1  UNL1        0.0987
      9 C         143.1586  138.6586  165.9279 C.3     1  UNL1        0.0861
     10 N         142.1816  139.3763  165.0445 N.3     1  UNL1       -0.2925
     11 H         142.0852  138.8171  164.1969 H       1  UNL1        0.1236
     12 O         142.0789  142.3569  165.8057 O.3     1  UNL1       -0.4537
     13 C         141.4972  143.3373  164.8310 C.ar    1  UNL1        0.1462
     14 C         142.3949  144.2934  164.1028 C.ar    1  UNL1        0.0384
     15 C         141.8132  145.2739  163.1280 C.ar    1  UNL1        0.0154
     16 C         140.3338  145.2984  162.8813 C.ar    1  UNL1        0.0684
     17 CL        139.7521  146.2788  161.9066 Cl      1  UNL1       -0.0814
     18 C         139.4362  144.3423  163.6095 C.ar    1  UNL1        0.0712
     19 CL        137.9568  144.3668  163.3628 Cl      1  UNL1       -0.0813
     20 C         140.0179  143.3618  164.5843 C.ar    1  UNL1        0.0497
@<TRIPOS>BOND
     1     9    10    1
     2    10     8    1
     3     8     1    1
     4     1     2   ar
     5     2     3   ar
     6     3     4    1
     7     3     5   ar
     8     5     6   ar
     9     6     7   ar
    10     7    12    1
    11    12    13    1
    12    13    14   ar
    13    14    15   ar
    14    15    16   ar
    15    16    17    1
    16    16    18   ar
    17    18    19    1
    18    18    20   ar
    19     7     1   ar
    20    20    13   ar
    21    10    11    1
