@<TRIPOS>MOLECULE
*****
 44 47 0 0 0
SMALL
GASTEIGER

@<TRIPOS>ATOM
      1 C         141.4798  142.4454  162.5108 C.3     1  UNL1        0.0809
      2 C         141.9435  142.3798  163.9358 C.ar    1  UNL1        0.0375
      3 C         141.0991  141.6938  164.9684 C.ar    1  UNL1        0.0023
      4 C         141.5627  141.6282  166.3935 C.ar    1  UNL1        0.0181
      5 C         140.7183  140.9421  167.4261 C.ar    1  UNL1        0.0082
      6 C         141.1819  140.8765  168.8511 C.ar    1  UNL1        0.0347
      7 BR        140.3375  140.1905  169.8837 Br      1  UNL1       -0.0490
      8 C         142.4899  141.4970  169.2436 C.ar    1  UNL1        0.0082
      9 C         143.3344  142.1831  168.2110 C.ar    1  UNL1        0.0197
     10 C         142.8708  142.2487  166.7859 C.ar    1  UNL1        0.0844
     11 N         143.7152  142.9348  165.7533 N.ar    1  UNL1       -0.2119
     12 C         143.2515  143.0003  164.3283 C.ar    1  UNL1        0.2211
     13 O         144.0959  143.6864  163.2957 O.3     1  UNL1       -0.4563
     14 C         143.9889  145.1703  163.1046 C.3     1  UNL1        0.2542
     15 C         142.3729  141.9584  161.4083 C.ar    1  UNL1        0.0276
     16 C         142.9243  140.5641  161.4505 C.ar    1  UNL1        0.0570
     17 C         143.8174  140.0772  160.3481 C.ar    1  UNL1        0.2274
     18 N         144.1590  140.9846  159.2035 N.ar    1  UNL1       -0.1741
     19 C         143.6075  142.3789  159.1613 C.ar    1  UNL1        0.2623
     20 C         142.7144  142.8658  160.2638 C.ar    1  UNL1        0.1881
     21 O         144.3689  138.6829  160.3902 O.3     1  UNL1       -0.4561
     22 C         143.8029  137.6813  161.3528 C.3     1  UNL1        0.2542
     23 O         143.9490  143.2862  158.0168 O.3     1  UNL1       -0.4540
     24 C         143.5810  142.8972  156.6157 C.3     1  UNL1        0.2543
     25 O         142.1629  144.2601  160.2217 O.3     1  UNL1       -0.4670
     26 C         141.1647  144.6403  159.1685 C.3     1  UNL1        0.2527
     27 C         140.1231  142.9979  162.1882 C.3     1  UNL1        0.1162
     28 O         140.5574  144.3486  162.6752 O.3     1  UNL1       -0.3820
     29 H         139.8238  144.9766  162.5835 H       1  UNL1        0.2107
     30 C         139.3018  139.1156  162.1375 C.ar    1  UNL1        0.2272
     31 C         139.7360  140.4662  162.6245 C.ar    1  UNL1        0.0559
     32 C         139.6889  141.6473  161.7011 C.ar    1  UNL1        0.0117
     33 C         139.2075  141.4777  160.2906 C.ar    1  UNL1        0.0559
     34 C         138.7733  140.1271  159.8036 C.ar    1  UNL1        0.2272
     35 N         138.8204  138.9460  160.7270 N.ar    1  UNL1       -0.1767
     36 C         140.6683  137.3255  163.4331 C.3     1  UNL1        0.2542
     37 O         139.3489  137.9344  163.0610 O.3     1  UNL1       -0.4561
     38 O         138.2919  139.9576  158.3930 O.3     1  UNL1       -0.4561
     39 C         137.8744  141.1563  157.5939 C.3     1  UNL1        0.2542
     40 C         138.7664  143.5504  161.8656 C.3     1  UNL1        0.0491
     41 C         137.9963  144.3045  162.9088 C.3     1  UNL1        0.0750
     42 N         138.0659  143.8797  164.3457 N.3     1  UNL1       -0.2702
     43 C         137.6379  142.4974  164.7407 C.3     1  UNL1        0.0897
     44 C         138.5636  144.8372  165.3876 C.3     1  UNL1        0.0897
@<TRIPOS>BOND
     1    36    37    1
     2    37    30    1
     3    30    31   ar
     4    31    32   ar
     5    32    27    1
     6    27    28    1
     7    27    40    1
     8    40    41    1
     9    41    42    1
    10    42    43    1
    11    42    44    1
    12    27     1    1
    13     1     2    1
    14     2     3   ar
    15     3     4   ar
    16     4     5   ar
    17     5     6   ar
    18     6     7    1
    19     6     8   ar
    20     8     9   ar
    21     9    10   ar
    22    10    11   ar
    23    11    12   ar
    24    12    13    1
    25    13    14    1
    26     1    15    1
    27    15    16   ar
    28    16    17   ar
    29    17    21    1
    30    21    22    1
    31    17    18   ar
    32    18    19   ar
    33    19    23    1
    34    23    24    1
    35    19    20   ar
    36    20    25    1
    37    25    26    1
    38    32    33   ar
    39    33    34   ar
    40    34    38    1
    41    38    39    1
    42    34    35   ar
    43    35    30   ar
    44    12     2   ar
    45    20    15   ar
    46    10     4   ar
    47    28    29    1
@<TRIPOS>MOLECULE
*****
 44 47 0 0 0
SMALL
GASTEIGER

@<TRIPOS>ATOM
      1 C         141.4719  142.4472  162.4216 C.3     1  UNL1        0.0809
      2 C         141.9414  142.3685  163.8441 C.ar    1  UNL1        0.0375
      3 C         141.0822  141.7095  164.8821 C.ar    1  UNL1        0.0023
      4 C         141.5517  141.6307  166.3045 C.ar    1  UNL1        0.0181
      5 C         140.6925  140.9717  167.3425 C.ar    1  UNL1        0.0082
      6 C         141.1621  140.8930  168.7650 C.ar    1  UNL1        0.0347
      7 BR        140.3029  140.2340  169.8030 Br      1  UNL1       -0.0490
      8 C         142.4908  141.4732  169.1494 C.ar    1  UNL1        0.0082
      9 C         143.3500  142.1322  168.1114 C.ar    1  UNL1        0.0197
     10 C         142.8805  142.2110  166.6890 C.ar    1  UNL1        0.0844
     11 N         143.7397  142.8700  165.6510 N.ar    1  UNL1       -0.2119
     12 C         143.2701  142.9487  164.2285 C.ar    1  UNL1        0.2211
     13 O         144.1293  143.6078  163.1905 O.3     1  UNL1       -0.4563
     14 C         144.1000  145.0987  163.0289 C.3     1  UNL1        0.2542
     15 C         142.3420  141.9298  161.3148 C.ar    1  UNL1        0.0276
     16 C         142.7945  140.4997  161.3227 C.ar    1  UNL1        0.0570
     17 C         143.6646  139.9822  160.2159 C.ar    1  UNL1        0.2274
     18 N         144.0824  140.8948  159.1012 N.ar    1  UNL1       -0.1741
     19 C         143.6299  142.3250  159.0933 C.ar    1  UNL1        0.2623
     20 C         142.7597  142.8424  160.2001 C.ar    1  UNL1        0.1881
     21 O         144.1171  138.5521  160.2238 O.3     1  UNL1       -0.4561
     22 C         143.7123  137.6436  161.3467 C.3     1  UNL1        0.2542
     23 O         144.0476  143.2376  157.9786 O.3     1  UNL1       -0.4540
     24 C         143.7254  142.8819  156.5575 C.3     1  UNL1        0.2543
     25 O         142.3072  144.2725  160.1922 O.3     1  UNL1       -0.4670
     26 C         141.3421  144.7480  159.1469 C.3     1  UNL1        0.2527
     27 C         140.1321  143.0435  162.1060 C.3     1  UNL1        0.1162
     28 O         140.6194  144.3840  162.5702 O.3     1  UNL1       -0.3820
     29 H         139.9076  145.0365  162.4778 H       1  UNL1        0.2107
     30 C         138.8503  140.1372  159.7268 C.ar    1  UNL1        0.2272
     31 C         139.3375  141.4778  160.1910 C.ar    1  UNL1        0.0559
     32 C         139.6449  141.7029  161.6418 C.ar    1  UNL1        0.0117
     33 C         139.4650  140.5875  162.6284 C.ar    1  UNL1        0.0559
     34 C         138.9777  139.2469  162.1642 C.ar    1  UNL1        0.2272
     35 N         138.6704  139.0218  160.7134 N.ar    1  UNL1       -0.1767
     36 C         137.7164  140.9104  157.5208 C.3     1  UNL1        0.2542
     37 O         138.5429  139.9121  158.2760 O.3     1  UNL1       -0.4561
     38 O         138.7978  138.1314  163.1509 O.3     1  UNL1       -0.4561
     39 C         139.0106  138.3830  164.6143 C.3     1  UNL1        0.2542
     40 C         138.7924  143.6397  161.7904 C.3     1  UNL1        0.0491
     41 C         138.0257  144.3673  162.8548 C.3     1  UNL1        0.0750
     42 N         138.0791  143.8906  164.2760 N.3     1  UNL1       -0.2702
     43 C         138.6931  144.7573  165.3352 C.3     1  UNL1        0.0897
     44 C         137.5184  142.5472  164.6380 C.3     1  UNL1        0.0897
@<TRIPOS>BOND
     1    36    37    1
     2    37    30    1
     3    30    31   ar
     4    31    32   ar
     5    32    27    1
     6    27    28    1
     7    27    40    1
     8    40    41    1
     9    41    42    1
    10    42    43    1
    11    42    44    1
    12    27     1    1
    13     1     2    1
    14     2     3   ar
    15     3     4   ar
    16     4     5   ar
    17     5     6   ar
    18     6     7    1
    19     6     8   ar
    20     8     9   ar
    21     9    10   ar
    22    10    11   ar
    23    11    12   ar
    24    12    13    1
    25    13    14    1
    26     1    15    1
    27    15    16   ar
    28    16    17   ar
    29    17    21    1
    30    21    22    1
    31    17    18   ar
    32    18    19   ar
    33    19    23    1
    34    23    24    1
    35    19    20   ar
    36    20    25    1
    37    25    26    1
    38    32    33   ar
    39    33    34   ar
    40    34    38    1
    41    38    39    1
    42    34    35   ar
    43    35    30   ar
    44    12     2   ar
    45    20    15   ar
    46    10     4   ar
    47    28    29    1
@<TRIPOS>MOLECULE
*****
 44 47 0 0 0
SMALL
GASTEIGER

@<TRIPOS>ATOM
      1 C         141.6913  141.0692  162.1140 C.3     1  UNL1        0.0809
      2 C         141.1980  140.7820  163.5012 C.ar    1  UNL1        0.0375
      3 C         141.2922  141.8365  164.5639 C.ar    1  UNL1        0.0023
      4 C         140.7990  141.5494  165.9511 C.ar    1  UNL1        0.0181
      5 C         140.8931  142.6038  167.0138 C.ar    1  UNL1        0.0082
      6 C         140.3999  142.3167  168.4010 C.ar    1  UNL1        0.0347
      7 BR        140.4940  143.3711  169.4637 Br      1  UNL1       -0.0490
      8 C         139.8125  140.9752  168.7255 C.ar    1  UNL1        0.0082
      9 C         139.7183  139.9207  167.6628 C.ar    1  UNL1        0.0197
     10 C         140.2115  140.2078  166.2756 C.ar    1  UNL1        0.0844
     11 N         140.1174  139.1534  165.2129 N.ar    1  UNL1       -0.2119
     12 C         140.6106  139.4405  163.8257 C.ar    1  UNL1        0.2211
     13 O         140.5165  138.3861  162.7630 O.3     1  UNL1       -0.4563
     14 C         139.2474  137.6050  162.5919 C.3     1  UNL1        0.2542
     15 C         141.0941  140.3489  160.9416 C.ar    1  UNL1        0.0276
     16 C         139.6694  140.6064  160.5495 C.ar    1  UNL1        0.0570
     17 C         139.0722  139.8862  159.3771 C.ar    1  UNL1        0.2274
     18 N         139.8998  138.9083  158.5967 N.ar    1  UNL1       -0.1741
     19 C         141.3246  138.6508  158.9888 C.ar    1  UNL1        0.2623
     20 C         141.9217  139.3711  160.1613 C.ar    1  UNL1        0.1881
     21 O         137.6474  140.1437  158.9850 O.3     1  UNL1       -0.4561
     22 C         137.3406  140.8824  157.7160 C.3     1  UNL1        0.2542
     23 O         142.1522  137.6730  158.2085 O.3     1  UNL1       -0.4540
     24 C         142.9052  138.1291  156.9941 C.3     1  UNL1        0.2543
     25 O         143.3465  139.1136  160.5533 O.3     1  UNL1       -0.4670
     26 C         143.6958  137.8923  161.3512 C.3     1  UNL1        0.2527
     27 C         142.7817  142.0766  161.8993 C.3     1  UNL1        0.1162
     28 O         143.7582  141.1650  162.5815 O.3     1  UNL1       -0.3820
     29 H         144.6335  141.5827  162.5976 H       1  UNL1        0.2107
     30 C         141.0035  144.2349  159.0833 C.ar    1  UNL1        0.2272
     31 C         141.9801  143.3234  159.7655 C.ar    1  UNL1        0.0559
     32 C         141.8052  142.9882  161.2171 C.ar    1  UNL1        0.0117
     33 C         140.6537  143.5646  161.9864 C.ar    1  UNL1        0.0559
     34 C         139.6772  144.4761  161.3042 C.ar    1  UNL1        0.2272
     35 N         139.8521  144.8113  159.8526 N.ar    1  UNL1       -0.1767
     36 C         141.8590  145.8461  157.2334 C.3     1  UNL1        0.2542
     37 O         141.1785  144.5701  157.6317 O.3     1  UNL1       -0.4561
     38 O         138.5257  145.0525  162.0736 O.3     1  UNL1       -0.4561
     39 C         137.8598  144.2424  163.1461 C.3     1  UNL1        0.2542
     40 C         143.8721  143.0840  161.6845 C.3     1  UNL1        0.0491
     41 C         144.7535  143.4905  162.8283 C.3     1  UNL1        0.0750
     42 N         144.1468  144.0538  164.0791 N.3     1  UNL1       -0.2702
     43 C         143.1881  145.2043  163.9955 C.3     1  UNL1        0.0897
     44 C         144.4990  143.4665  165.4138 C.3     1  UNL1        0.0897
@<TRIPOS>BOND
     1    36    37    1
     2    37    30    1
     3    30    31   ar
     4    31    32   ar
     5    32    27    1
     6    27    28    1
     7    27    40    1
     8    40    41    1
     9    41    42    1
    10    42    43    1
    11    42    44    1
    12    27     1    1
    13     1     2    1
    14     2     3   ar
    15     3     4   ar
    16     4     5   ar
    17     5     6   ar
    18     6     7    1
    19     6     8   ar
    20     8     9   ar
    21     9    10   ar
    22    10    11   ar
    23    11    12   ar
    24    12    13    1
    25    13    14    1
    26     1    15    1
    27    15    16   ar
    28    16    17   ar
    29    17    21    1
    30    21    22    1
    31    17    18   ar
    32    18    19   ar
    33    19    23    1
    34    23    24    1
    35    19    20   ar
    36    20    25    1
    37    25    26    1
    38    32    33   ar
    39    33    34   ar
    40    34    38    1
    41    38    39    1
    42    34    35   ar
    43    35    30   ar
    44    12     2   ar
    45    20    15   ar
    46    10     4   ar
    47    28    29    1
@<TRIPOS>MOLECULE
*****
 44 47 0 0 0
SMALL
GASTEIGER

@<TRIPOS>ATOM
      1 C         141.7068  141.0498  162.1530 C.3     1  UNL1        0.0809
      2 C         141.2254  140.7657  163.5450 C.ar    1  UNL1        0.0375
      3 C         141.2981  141.8332  164.5962 C.ar    1  UNL1        0.0023
      4 C         140.8167  141.5491  165.9882 C.ar    1  UNL1        0.0181
      5 C         140.8895  142.6166  167.0394 C.ar    1  UNL1        0.0082
      6 C         140.4080  142.3324  168.4314 C.ar    1  UNL1        0.0347
      7 BR        140.4808  143.3999  169.4827 Br      1  UNL1       -0.0490
      8 C         139.8538  140.9809  168.7721 C.ar    1  UNL1        0.0082
      9 C         139.7811  139.9134  167.7208 C.ar    1  UNL1        0.0197
     10 C         140.2625  140.1975  166.3289 C.ar    1  UNL1        0.0844
     11 N         140.1897  139.1300  165.2776 N.ar    1  UNL1       -0.2119
     12 C         140.6712  139.4141  163.8856 C.ar    1  UNL1        0.2211
     13 O         140.5984  138.3466  162.8343 O.3     1  UNL1       -0.4563
     14 C         139.3361  137.5568  162.6536 C.3     1  UNL1        0.2542
     15 C         141.1202  140.3060  160.9900 C.ar    1  UNL1        0.0276
     16 C         139.6913  140.5364  160.5960 C.ar    1  UNL1        0.0570
     17 C         139.1047  139.7925  159.4331 C.ar    1  UNL1        0.2274
     18 N         139.9470  138.8182  158.6640 N.ar    1  UNL1       -0.1741
     19 C         141.3759  138.5878  159.0580 C.ar    1  UNL1        0.2623
     20 C         141.9625  139.3317  160.2211 C.ar    1  UNL1        0.1881
     21 O         137.6759  140.0230  159.0391 O.3     1  UNL1       -0.4561
     22 C         137.3565  140.8019  157.7976 C.3     1  UNL1        0.2542
     23 O         142.2181  137.6135  158.2890 O.3     1  UNL1       -0.4540
     24 C         142.8688  138.0350  157.0050 C.3     1  UNL1        0.2543
     25 O         143.3914  139.1013  160.6150 O.3     1  UNL1       -0.4670
     26 C         143.7595  137.8981  161.4317 C.3     1  UNL1        0.2527
     27 C         142.7749  142.0778  161.9241 C.3     1  UNL1        0.1162
     28 O         143.7725  141.1948  162.6133 O.3     1  UNL1       -0.3820
     29 H         144.6387  141.6312  162.6224 H       1  UNL1        0.2107
     30 C         139.6795  144.4903  161.3339 C.ar    1  UNL1        0.2272
     31 C         140.6771  143.6073  162.0232 C.ar    1  UNL1        0.0559
     32 C         141.7773  142.9608  161.2348 C.ar    1  UNL1        0.0117
     33 C         141.8799  143.1973  159.7571 C.ar    1  UNL1        0.0559
     34 C         140.8823  144.0803  159.0679 C.ar    1  UNL1        0.2272
     35 N         139.7821  144.7268  159.8562 N.ar    1  UNL1       -0.1767
     36 C         137.8135  144.3384  163.1353 C.3     1  UNL1        0.2542
     37 O         138.5793  145.1368  162.1223 O.3     1  UNL1       -0.4561
     38 O         140.9849  144.3168  157.5901 O.3     1  UNL1       -0.4561
     39 C         139.7611  144.2196  156.7283 C.3     1  UNL1        0.2542
     40 C         143.8430  143.1058  161.6951 C.3     1  UNL1        0.0491
     41 C         144.7289  143.5321  162.8282 C.3     1  UNL1        0.0750
     42 N         144.1257  144.0937  164.0814 N.3     1  UNL1       -0.2702
     43 C         144.4908  143.5126  165.4152 C.3     1  UNL1        0.0897
     44 C         143.1572  145.2364  164.0009 C.3     1  UNL1        0.0897
@<TRIPOS>BOND
     1    36    37    1
     2    37    30    1
     3    30    31   ar
     4    31    32   ar
     5    32    27    1
     6    27    28    1
     7    27    40    1
     8    40    41    1
     9    41    42    1
    10    42    43    1
    11    42    44    1
    12    27     1    1
    13     1     2    1
    14     2     3   ar
    15     3     4   ar
    16     4     5   ar
    17     5     6   ar
    18     6     7    1
    19     6     8   ar
    20     8     9   ar
    21     9    10   ar
    22    10    11   ar
    23    11    12   ar
    24    12    13    1
    25    13    14    1
    26     1    15    1
    27    15    16   ar
    28    16    17   ar
    29    17    21    1
    30    21    22    1
    31    17    18   ar
    32    18    19   ar
    33    19    23    1
    34    23    24    1
    35    19    20   ar
    36    20    25    1
    37    25    26    1
    38    32    33   ar
    39    33    34   ar
    40    34    38    1
    41    38    39    1
    42    34    35   ar
    43    35    30   ar
    44    12     2   ar
    45    20    15   ar
    46    10     4   ar
    47    28    29    1
@<TRIPOS>MOLECULE
*****
 44 47 0 0 0
SMALL
GASTEIGER

@<TRIPOS>ATOM
      1 C         140.8060  140.7222  163.4348 C.3     1  UNL1        0.0809
      2 C         140.6106  140.6553  164.9206 C.ar    1  UNL1        0.0375
      3 C         141.4310  141.5266  165.8249 C.ar    1  UNL1        0.0023
      4 C         141.2357  141.4597  167.3106 C.ar    1  UNL1        0.0181
      5 C         142.0561  142.3310  168.2149 C.ar    1  UNL1        0.0082
      6 C         141.8607  142.2640  169.7006 C.ar    1  UNL1        0.0347
      7 BR        142.6811  143.1353  170.6049 Br      1  UNL1       -0.0490
      8 C         140.8450  141.3258  170.2820 C.ar    1  UNL1        0.0082
      9 C         140.0246  140.4545  169.3777 C.ar    1  UNL1        0.0197
     10 C         140.2199  140.5214  167.8920 C.ar    1  UNL1        0.0844
     11 N         139.3995  139.6501  166.9877 N.ar    1  UNL1       -0.2119
     12 C         139.5949  139.7171  165.5019 C.ar    1  UNL1        0.2211
     13 O         138.7745  138.8458  164.5976 O.3     1  UNL1       -0.4563
     14 C         138.6232  137.3842  164.8990 C.3     1  UNL1        0.2542
     15 C         139.8195  141.4626  162.5812 C.ar    1  UNL1        0.0276
     16 C         139.5258  142.9077  162.8560 C.ar    1  UNL1        0.0570
     17 C         138.5394  143.6481  162.0025 C.ar    1  UNL1        0.2274
     18 N         137.8464  142.9434  160.8740 N.ar    1  UNL1       -0.1741
     19 C         138.1400  141.4983  160.5992 C.ar    1  UNL1        0.2623
     20 C         139.1266  140.7579  161.4528 C.ar    1  UNL1        0.1881
     21 O         138.2457  145.0931  162.2773 O.3     1  UNL1       -0.4561
     22 C         139.2988  146.1325  162.0306 C.3     1  UNL1        0.2542
     23 O         137.4472  140.7936  159.4708 O.3     1  UNL1       -0.4540
     24 C         138.0987  140.7165  158.1219 C.3     1  UNL1        0.2543
     25 O         139.4202  139.3128  161.1780 O.3     1  UNL1       -0.4670
     26 C         138.3470  138.2812  161.3624 C.3     1  UNL1        0.2527
     27 C         141.9879  140.0487  162.8027 C.3     1  UNL1        0.1162
     28 O         141.4176  138.7092  163.1637 O.3     1  UNL1       -0.3820
     29 H         142.0153  138.0098  162.8561 H       1  UNL1        0.2107
     30 C         143.6460  143.6370  163.1555 C.ar    1  UNL1        0.2272
     31 C         143.0758  142.2975  163.5165 C.ar    1  UNL1        0.0559
     32 C         142.5581  141.3883  162.4416 C.ar    1  UNL1        0.0117
     33 C         142.6106  141.8188  161.0057 C.ar    1  UNL1        0.0559
     34 C         143.1809  143.1584  160.6447 C.ar    1  UNL1        0.2272
     35 N         143.6986  144.0675  161.7196 N.ar    1  UNL1       -0.1767
     36 C         144.6868  143.9697  165.5127 C.3     1  UNL1        0.2542
     37 O         144.1638  144.5462  164.2305 O.3     1  UNL1       -0.4561
     38 O         143.2334  143.5888  159.2087 O.3     1  UNL1       -0.4561
     39 C         143.3721  142.5632  158.1229 C.3     1  UNL1        0.2542
     40 C         143.1697  139.3753  162.1705 C.3     1  UNL1        0.0491
     41 C         144.1487  138.6231  163.0226 C.3     1  UNL1        0.0750
     42 N         144.5652  139.1766  164.3531 N.3     1  UNL1       -0.2702
     43 C         145.6076  140.2528  164.4246 C.3     1  UNL1        0.0897
     44 C         143.9392  138.6540  165.6121 C.3     1  UNL1        0.0897
@<TRIPOS>BOND
     1    36    37    1
     2    37    30    1
     3    30    31   ar
     4    31    32   ar
     5    32    27    1
     6    27    28    1
     7    27    40    1
     8    40    41    1
     9    41    42    1
    10    42    43    1
    11    42    44    1
    12    27     1    1
    13     1     2    1
    14     2     3   ar
    15     3     4   ar
    16     4     5   ar
    17     5     6   ar
    18     6     7    1
    19     6     8   ar
    20     8     9   ar
    21     9    10   ar
    22    10    11   ar
    23    11    12   ar
    24    12    13    1
    25    13    14    1
    26     1    15    1
    27    15    16   ar
    28    16    17   ar
    29    17    21    1
    30    21    22    1
    31    17    18   ar
    32    18    19   ar
    33    19    23    1
    34    23    24    1
    35    19    20   ar
    36    20    25    1
    37    25    26    1
    38    32    33   ar
    39    33    34   ar
    40    34    38    1
    41    38    39    1
    42    34    35   ar
    43    35    30   ar
    44    12     2   ar
    45    20    15   ar
    46    10     4   ar
    47    28    29    1
@<TRIPOS>MOLECULE
*****
 44 47 0 0 0
SMALL
GASTEIGER

@<TRIPOS>ATOM
      1 C         140.0293  141.4435  161.8030 C.3     1  UNL1        0.0809
      2 C         139.7731  141.0129  163.2169 C.ar    1  UNL1        0.0375
      3 C         140.6354  141.5349  164.3277 C.ar    1  UNL1        0.0023
      4 C         140.3794  141.1043  165.7416 C.ar    1  UNL1        0.0181
      5 C         141.2417  141.6263  166.8524 C.ar    1  UNL1        0.0082
      6 C         140.9856  141.1957  168.2663 C.ar    1  UNL1        0.0347
      7 BR        141.8479  141.7177  169.3771 Br      1  UNL1       -0.0490
      8 C         139.8672  140.2432  168.5693 C.ar    1  UNL1        0.0082
      9 C         139.0049  139.7212  167.4585 C.ar    1  UNL1        0.0197
     10 C         139.2610  140.1517  166.0446 C.ar    1  UNL1        0.0844
     11 N         138.3987  139.6298  164.9338 N.ar    1  UNL1       -0.2119
     12 C         138.6548  140.0603  163.5199 C.ar    1  UNL1        0.2211
     13 O         137.7925  139.5384  162.4090 O.3     1  UNL1       -0.4563
     14 C         137.9027  138.1038  161.9849 C.3     1  UNL1        0.2542
     15 C         140.3310  140.4189  160.7499 C.ar    1  UNL1        0.0276
     16 C         141.5110  139.5063  160.9076 C.ar    1  UNL1        0.0570
     17 C         141.8127  138.4817  159.8545 C.ar    1  UNL1        0.2274
     18 N         140.9344  138.3695  158.6436 N.ar    1  UNL1       -0.1741
     19 C         139.7544  139.2821  158.4859 C.ar    1  UNL1        0.2623
     20 C         139.4527  140.3068  159.5391 C.ar    1  UNL1        0.1881
     21 O         142.9927  137.5691  160.0122 O.3     1  UNL1       -0.4561
     22 C         143.9571  137.7786  161.1419 C.3     1  UNL1        0.2542
     23 O         138.8762  139.1700  157.2752 O.3     1  UNL1       -0.4540
     24 C         139.4714  139.2882  155.9034 C.3     1  UNL1        0.2543
     25 O         138.2727  141.2193  159.3814 O.3     1  UNL1       -0.4670
     26 C         138.2903  142.2940  158.3350 C.3     1  UNL1        0.2527
     27 C         139.9836  142.8988  161.4422 C.3     1  UNL1        0.1162
     28 O         138.5433  142.9564  161.8571 O.3     1  UNL1       -0.3820
     29 H         138.2050  143.8561  161.7266 H       1  UNL1        0.2107
     30 C         143.2343  142.9242  159.1657 C.ar    1  UNL1        0.2272
     31 C         141.7940  142.9818  159.5806 C.ar    1  UNL1        0.0559
     32 C         141.4240  142.8411  161.0274 C.ar    1  UNL1        0.0117
     33 C         142.4943  142.6426  162.0593 C.ar    1  UNL1        0.0559
     34 C         143.9347  142.5850  161.6444 C.ar    1  UNL1        0.2272
     35 N         144.3046  142.7257  160.1976 N.ar    1  UNL1       -0.1767
     36 C         142.6826  143.7791  156.7751 C.3     1  UNL1        0.2542
     37 O         143.6043  143.0649  157.7188 O.3     1  UNL1       -0.4561
     38 O         145.0050  142.3865  162.6765 O.3     1  UNL1       -0.4561
     39 C         145.2003  141.0385  163.3048 C.3     1  UNL1        0.2542
     40 C         139.9380  144.3540  161.0815 C.3     1  UNL1        0.0491
     41 C         139.6611  145.3807  162.1395 C.3     1  UNL1        0.0750
     42 N         140.1175  145.1469  163.5491 N.3     1  UNL1       -0.2702
     43 C         141.5753  145.2384  163.8904 C.3     1  UNL1        0.0897
     44 C         139.1161  144.8215  164.6175 C.3     1  UNL1        0.0897
@<TRIPOS>BOND
     1    36    37    1
     2    37    30    1
     3    30    31   ar
     4    31    32   ar
     5    32    27    1
     6    27    28    1
     7    27    40    1
     8    40    41    1
     9    41    42    1
    10    42    43    1
    11    42    44    1
    12    27     1    1
    13     1     2    1
    14     2     3   ar
    15     3     4   ar
    16     4     5   ar
    17     5     6   ar
    18     6     7    1
    19     6     8   ar
    20     8     9   ar
    21     9    10   ar
    22    10    11   ar
    23    11    12   ar
    24    12    13    1
    25    13    14    1
    26     1    15    1
    27    15    16   ar
    28    16    17   ar
    29    17    21    1
    30    21    22    1
    31    17    18   ar
    32    18    19   ar
    33    19    23    1
    34    23    24    1
    35    19    20   ar
    36    20    25    1
    37    25    26    1
    38    32    33   ar
    39    33    34   ar
    40    34    38    1
    41    38    39    1
    42    34    35   ar
    43    35    30   ar
    44    12     2   ar
    45    20    15   ar
    46    10     4   ar
    47    28    29    1
@<TRIPOS>MOLECULE
*****
 44 47 0 0 0
SMALL
GASTEIGER

@<TRIPOS>ATOM
      1 C         142.2846  141.3552  163.3919 C.3     1  UNL1        0.0809
      2 C         142.4776  141.6256  164.8547 C.ar    1  UNL1        0.0375
      3 C         141.6427  140.9001  165.8679 C.ar    1  UNL1        0.0023
      4 C         141.8356  141.1705  167.3307 C.ar    1  UNL1        0.0181
      5 C         141.0007  140.4450  168.3440 C.ar    1  UNL1        0.0082
      6 C         141.1937  140.7154  169.8068 C.ar    1  UNL1        0.0347
      7 BR        140.3588  139.9900  170.8200 Br      1  UNL1       -0.0490
      8 C         142.2215  141.7111  170.2562 C.ar    1  UNL1        0.0082
      9 C         143.0564  142.4366  169.2430 C.ar    1  UNL1        0.0197
     10 C         142.8635  142.1662  167.7802 C.ar    1  UNL1        0.0844
     11 N         143.6984  142.8917  166.7670 N.ar    1  UNL1       -0.2119
     12 C         143.5054  142.6213  165.3041 C.ar    1  UNL1        0.2211
     13 O         144.3403  143.3467  164.2909 O.3     1  UNL1       -0.4563
     14 C         144.0188  144.7674  163.9327 C.3     1  UNL1        0.2542
     15 C         141.6605  142.3977  162.5124 C.ar    1  UNL1        0.0276
     16 C         140.3535  143.0225  162.9014 C.ar    1  UNL1        0.0570
     17 C         139.7294  144.0651  162.0220 C.ar    1  UNL1        0.2274
     18 N         140.4122  144.4829  160.7534 N.ar    1  UNL1       -0.1741
     19 C         141.7193  143.8581  160.3644 C.ar    1  UNL1        0.2623
     20 C         142.3434  142.8155  161.2439 C.ar    1  UNL1        0.1881
     21 O         138.4223  144.6899  162.4110 O.3     1  UNL1       -0.4561
     22 C         137.6260  144.1178  163.5463 C.3     1  UNL1        0.2542
     23 O         142.4021  144.2759  159.0959 O.3     1  UNL1       -0.4540
     24 C         141.9910  143.6682  157.7876 C.3     1  UNL1        0.2543
     25 O         143.6504  142.1907  160.8549 O.3     1  UNL1       -0.4670
     26 C         144.9065  143.0106  160.8666 C.3     1  UNL1        0.2527
     27 C         142.7159  140.0422  162.8086 C.3     1  UNL1        0.1162
     28 O         144.1511  140.4635  162.9214 O.3     1  UNL1       -0.3820
     29 H         144.7233  139.7538  162.5901 H       1  UNL1        0.2107
     30 C         139.1318  139.3126  161.2684 C.ar    1  UNL1        0.2272
     31 C         140.5670  139.7338  161.3812 C.ar    1  UNL1        0.0559
     32 C         141.2806  139.6210  162.6957 C.ar    1  UNL1        0.0117
     33 C         140.5591  139.0869  163.8974 C.ar    1  UNL1        0.0559
     34 C         139.1238  138.6657  163.7846 C.ar    1  UNL1        0.2272
     35 N         138.4102  138.7785  162.4701 N.ar    1  UNL1       -0.1767
     36 C         139.0042  140.2567  158.8513 C.3     1  UNL1        0.2542
     37 O         138.4182  139.4254  159.9538 O.3     1  UNL1       -0.4561
     38 O         138.4023  138.1316  164.9864 O.3     1  UNL1       -0.4561
     39 C         138.1790  139.0124  166.1798 C.3     1  UNL1        0.2542
     40 C         143.1471  138.7293  162.2253 C.3     1  UNL1        0.0491
     41 C         144.0746  138.7006  161.0468 C.3     1  UNL1        0.0750
     42 N         143.5181  138.7128  159.6539 N.3     1  UNL1       -0.2702
     43 C         143.7861  139.8790  158.7493 C.3     1  UNL1        0.0897
     44 C         142.6936  137.5588  159.1655 C.3     1  UNL1        0.0897
@<TRIPOS>BOND
     1    36    37    1
     2    37    30    1
     3    30    31   ar
     4    31    32   ar
     5    32    27    1
     6    27    28    1
     7    27    40    1
     8    40    41    1
     9    41    42    1
    10    42    43    1
    11    42    44    1
    12    27     1    1
    13     1     2    1
    14     2     3   ar
    15     3     4   ar
    16     4     5   ar
    17     5     6   ar
    18     6     7    1
    19     6     8   ar
    20     8     9   ar
    21     9    10   ar
    22    10    11   ar
    23    11    12   ar
    24    12    13    1
    25    13    14    1
    26     1    15    1
    27    15    16   ar
    28    16    17   ar
    29    17    21    1
    30    21    22    1
    31    17    18   ar
    32    18    19   ar
    33    19    23    1
    34    23    24    1
    35    19    20   ar
    36    20    25    1
    37    25    26    1
    38    32    33   ar
    39    33    34   ar
    40    34    38    1
    41    38    39    1
    42    34    35   ar
    43    35    30   ar
    44    12     2   ar
    45    20    15   ar
    46    10     4   ar
    47    28    29    1
@<TRIPOS>MOLECULE
*****
 44 47 0 0 0
SMALL
GASTEIGER

@<TRIPOS>ATOM
      1 C         140.0761  141.4524  161.7944 C.3     1  UNL1        0.0809
      2 C         139.8310  141.0282  163.2121 C.ar    1  UNL1        0.0375
      3 C         140.7044  141.5521  164.3134 C.ar    1  UNL1        0.0023
      4 C         140.4593  141.1279  165.7311 C.ar    1  UNL1        0.0181
      5 C         141.3327  141.6519  166.8323 C.ar    1  UNL1        0.0082
      6 C         141.0876  141.2276  168.2501 C.ar    1  UNL1        0.0347
      7 BR        141.9610  141.7516  169.3514 Br      1  UNL1       -0.0490
      8 C         139.9692  140.2795  168.5666 C.ar    1  UNL1        0.0082
      9 C         139.0959  139.7556  167.4654 C.ar    1  UNL1        0.0197
     10 C         139.3409  140.1798  166.0476 C.ar    1  UNL1        0.0844
     11 N         138.4675  139.6558  164.9464 N.ar    1  UNL1       -0.2119
     12 C         138.7126  140.0801  163.5286 C.ar    1  UNL1        0.2211
     13 O         137.8392  139.5561  162.4274 O.3     1  UNL1       -0.4563
     14 C         137.9354  138.1175  162.0140 C.3     1  UNL1        0.2542
     15 C         140.3672  140.4228  160.7431 C.ar    1  UNL1        0.0276
     16 C         141.5474  139.5095  160.8942 C.ar    1  UNL1        0.0570
     17 C         141.8385  138.4799  159.8430 C.ar    1  UNL1        0.2274
     18 N         140.9493  138.3637  158.6405 N.ar    1  UNL1       -0.1741
     19 C         139.7691  139.2770  158.4893 C.ar    1  UNL1        0.2623
     20 C         139.4780  140.3066  159.5407 C.ar    1  UNL1        0.1881
     21 O         143.0187  137.5665  159.9941 O.3     1  UNL1       -0.4561
     22 C         143.9500  137.7310  161.1585 C.3     1  UNL1        0.2542
     23 O         138.8799  139.1608  157.2869 O.3     1  UNL1       -0.4540
     24 C         139.4338  139.4183  155.9169 C.3     1  UNL1        0.2543
     25 O         138.2978  141.2200  159.3895 O.3     1  UNL1       -0.4670
     26 C         138.3057  142.2875  158.3357 C.3     1  UNL1        0.2527
     27 C         140.0301  142.9062  161.4279 C.3     1  UNL1        0.1162
     28 O         138.5839  142.9599  161.8224 O.3     1  UNL1       -0.3820
     29 H         138.2441  143.8578  161.6840 H       1  UNL1        0.2107
     30 C         143.9797  142.6176  161.6876 C.ar    1  UNL1        0.2272
     31 C         142.5335  142.6713  162.0820 C.ar    1  UNL1        0.0559
     32 C         141.4763  142.8526  161.0335 C.ar    1  UNL1        0.0117
     33 C         141.8654  142.9802  159.5905 C.ar    1  UNL1        0.0559
     34 C         143.3116  142.9266  159.1960 C.ar    1  UNL1        0.2272
     35 N         144.3687  142.7453  160.2446 N.ar    1  UNL1       -0.1767
     36 C         144.6472  142.2997  164.1783 C.3     1  UNL1        0.2542
     37 O         145.0369  142.4363  162.7362 O.3     1  UNL1       -0.4561
     38 O         143.7006  143.0543  157.7529 O.3     1  UNL1       -0.4561
     39 C         142.7277  143.6198  156.7611 C.3     1  UNL1        0.2542
     40 C         139.9841  144.3601  161.0615 C.3     1  UNL1        0.0491
     41 C         139.6959  145.3899  162.1134 C.3     1  UNL1        0.0750
     42 N         140.1282  145.1558  163.5306 N.3     1  UNL1       -0.2702
     43 C         141.5778  145.2649  163.9002 C.3     1  UNL1        0.0897
     44 C         139.1108  144.8125  164.5781 C.3     1  UNL1        0.0897
@<TRIPOS>BOND
     1    36    37    1
     2    37    30    1
     3    30    31   ar
     4    31    32   ar
     5    32    27    1
     6    27    28    1
     7    27    40    1
     8    40    41    1
     9    41    42    1
    10    42    43    1
    11    42    44    1
    12    27     1    1
    13     1     2    1
    14     2     3   ar
    15     3     4   ar
    16     4     5   ar
    17     5     6   ar
    18     6     7    1
    19     6     8   ar
    20     8     9   ar
    21     9    10   ar
    22    10    11   ar
    23    11    12   ar
    24    12    13    1
    25    13    14    1
    26     1    15    1
    27    15    16   ar
    28    16    17   ar
    29    17    21    1
    30    21    22    1
    31    17    18   ar
    32    18    19   ar
    33    19    23    1
    34    23    24    1
    35    19    20   ar
    36    20    25    1
    37    25    26    1
    38    32    33   ar
    39    33    34   ar
    40    34    38    1
    41    38    39    1
    42    34    35   ar
    43    35    30   ar
    44    12     2   ar
    45    20    15   ar
    46    10     4   ar
    47    28    29    1
@<TRIPOS>MOLECULE
*****
 44 47 0 0 0
SMALL
GASTEIGER

@<TRIPOS>ATOM
      1 C         141.8459  140.7665  162.1818 C.3     1  UNL1        0.0809
      2 C         141.4183  140.1122  160.9015 C.ar    1  UNL1        0.0375
      3 C         142.2872  139.0671  160.2667 C.ar    1  UNL1        0.0023
      4 C         141.8597  138.4128  158.9864 C.ar    1  UNL1        0.0181
      5 C         142.7285  137.3677  158.3517 C.ar    1  UNL1        0.0082
      6 C         142.3010  136.7135  157.0713 C.ar    1  UNL1        0.0347
      7 BR        143.1698  135.6684  156.4366 Br      1  UNL1       -0.0490
      8 C         141.0047  137.1043  156.4258 C.ar    1  UNL1        0.0082
      9 C         140.1358  138.1494  157.0606 C.ar    1  UNL1        0.0197
     10 C         140.5633  138.8037  158.3408 C.ar    1  UNL1        0.0844
     11 N         139.6945  139.8488  158.9756 N.ar    1  UNL1       -0.2119
     12 C         140.1220  140.5031  160.2559 C.ar    1  UNL1        0.2211
     13 O         139.2532  141.5482  160.8907 O.3     1  UNL1       -0.4563
     14 C         138.5419  142.5534  160.0343 C.3     1  UNL1        0.2542
     15 C         140.8797  140.8840  163.3231 C.ar    1  UNL1        0.0276
     16 C         140.6667  142.2095  163.9920 C.ar    1  UNL1        0.0570
     17 C         139.7004  142.3271  165.1333 C.ar    1  UNL1        0.2274
     18 N         138.9472  141.1189  165.6057 N.ar    1  UNL1       -0.1741
     19 C         139.1602  139.7933  164.9368 C.ar    1  UNL1        0.2623
     20 C         140.1265  139.6759  163.7955 C.ar    1  UNL1        0.1881
     21 O         139.4874  143.6526  165.8022 O.3     1  UNL1       -0.4561
     22 C         138.6451  144.7012  165.1380 C.3     1  UNL1        0.2542
     23 O         138.4070  138.5853  165.4092 O.3     1  UNL1       -0.4540
     24 C         137.8020  138.5679  166.7816 C.3     1  UNL1        0.2543
     25 O         140.3395  138.3503  163.1266 O.3     1  UNL1       -0.4670
     26 C         141.2747  137.3461  163.7325 C.3     1  UNL1        0.2527
     27 C         143.2397  141.3032  162.3208 C.3     1  UNL1        0.1162
     28 O         143.5071  140.3230  163.4243 O.3     1  UNL1       -0.3820
     29 H         144.4145  140.4389  163.7469 H       1  UNL1        0.2107
     30 C         141.7469  144.3968  160.3331 C.ar    1  UNL1        0.2272
     31 C         142.0143  143.4166  161.4366 C.ar    1  UNL1        0.0559
     32 C         142.9722  142.2834  161.2173 C.ar    1  UNL1        0.0117
     33 C         143.6627  142.1304  159.8946 C.ar    1  UNL1        0.0559
     34 C         143.3953  143.1106  158.7911 C.ar    1  UNL1        0.2272
     35 N         142.4374  144.2438  159.0104 N.ar    1  UNL1       -0.1767
     36 C         140.2107  145.7702  161.9156 C.3     1  UNL1        0.2542
     37 O         140.7889  145.5301  160.5525 O.3     1  UNL1       -0.4561
     38 O         144.0858  142.9575  157.4683 O.3     1  UNL1       -0.4561
     39 C         145.3017  142.0866  157.3533 C.3     1  UNL1        0.2542
     40 C         144.6334  141.8399  162.4598 C.3     1  UNL1        0.0491
     41 C         145.1269  142.3083  163.7967 C.3     1  UNL1        0.0750
     42 N         144.2499  143.1638  164.6621 N.3     1  UNL1       -0.2702
     43 C         143.7177  142.6239  165.9564 C.3     1  UNL1        0.0897
     44 C         143.9051  144.5593  164.2332 C.3     1  UNL1        0.0897
@<TRIPOS>BOND
     1    36    37    1
     2    37    30    1
     3    30    31   ar
     4    31    32   ar
     5    32    27    1
     6    27    28    1
     7    27    40    1
     8    40    41    1
     9    41    42    1
    10    42    43    1
    11    42    44    1
    12    27     1    1
    13     1     2    1
    14     2     3   ar
    15     3     4   ar
    16     4     5   ar
    17     5     6   ar
    18     6     7    1
    19     6     8   ar
    20     8     9   ar
    21     9    10   ar
    22    10    11   ar
    23    11    12   ar
    24    12    13    1
    25    13    14    1
    26     1    15    1
    27    15    16   ar
    28    16    17   ar
    29    17    21    1
    30    21    22    1
    31    17    18   ar
    32    18    19   ar
    33    19    23    1
    34    23    24    1
    35    19    20   ar
    36    20    25    1
    37    25    26    1
    38    32    33   ar
    39    33    34   ar
    40    34    38    1
    41    38    39    1
    42    34    35   ar
    43    35    30   ar
    44    12     2   ar
    45    20    15   ar
    46    10     4   ar
    47    28    29    1
