@<TRIPOS>MOLECULE
*****
 29 32 0 0 0
SMALL
GASTEIGER

@<TRIPOS>ATOM
      1 C         142.7320  139.4288  168.1098 C.ar    1  UNL1        0.1525
      2 C         142.8138  139.3379  169.6048 C.ar    1  UNL1        0.0393
      3 C         142.1795  140.3973  170.4564 C.ar    1  UNL1        0.0417
      4 C         141.4633  141.5476  169.8130 C.ar    1  UNL1        0.1640
      5 N         140.7470  142.7328  170.3894 N.ar    1  UNL1       -0.2234
      6 C         140.2225  143.5562  169.2506 C.ar    1  UNL1        0.1197
      7 C         140.6146  142.8799  167.9704 C.ar    1  UNL1        0.1036
      8 N         141.3814  141.6385  168.3180 N.ar    1  UNL1       -0.2096
      9 N         142.0158  140.5791  167.4664 N.ar    1  UNL1       -0.1486
     10 C         140.2958  143.3605  166.5857 C.ar    1  UNL1        0.0196
     11 C         139.1036  144.2407  166.3532 C.ar    1  UNL1        0.0060
     12 C         138.7849  144.7214  164.9686 C.ar    1  UNL1        0.0520
     13 C         139.6582  144.3219  163.8163 C.ar    1  UNL1        0.1807
     14 C         140.8504  143.4417  164.0488 C.ar    1  UNL1        0.0520
     15 C         141.1691  142.9611  165.4335 C.ar    1  UNL1        0.0060
     16 S         139.3394  144.8025  162.4317 S.O     1  UNL1        0.0581
     17 C         139.9103  146.0988  161.9377 C.3     1  UNL1        0.3254
     18 O         138.4499  143.9870  161.5409 O.co2   1  UNL1       -0.6774
     19 N         143.3663  138.3694  167.2581 N.pl3   1  UNL1       -0.2966
     20 H         143.8328  137.6122  167.6804 H       1  UNL1        0.1537
     21 C         143.1374  138.6522  162.7729 C.ar    1  UNL1        0.1808
     22 C         144.3285  139.2031  163.4992 C.ar    1  UNL1        0.0532
     23 C         144.4049  139.1088  164.9944 C.ar    1  UNL1        0.0191
     24 C         143.2900  138.4637  165.7631 C.ar    1  UNL1        0.0497
     25 C         142.0988  137.9128  165.0366 C.ar    1  UNL1        0.0191
     26 C         142.0225  138.0071  163.5416 C.ar    1  UNL1        0.0532
     27 C         141.7259  138.8198  160.5981 C.3     1  UNL1        0.3254
     28 S         143.0611  138.7465  161.2778 S.O     1  UNL1        0.0581
     29 O         144.3200  138.7675  160.4624 O.co2   1  UNL1       -0.6774
@<TRIPOS>UNITY_ATOM_ATTR
16 1
charge 1
18 1
charge -1
28 1
charge 1
29 1
charge -1
@<TRIPOS>BOND
     1    27    28    1
     2    28    29    2
     3    28    21    1
     4    21    22   ar
     5    22    23   ar
     6    23    24   ar
     7    24    19    1
     8    19     1    1
     9     1     2   ar
    10     2     3   ar
    11     3     4   ar
    12     4     5   ar
    13     5     6   ar
    14     6     7   ar
    15     7    10    1
    16    10    11   ar
    17    11    12   ar
    18    12    13   ar
    19    13    16    1
    20    16    17    1
    21    16    18    2
    22    13    14   ar
    23    14    15   ar
    24     7     8   ar
    25     8     9   ar
    26    24    25   ar
    27    25    26   ar
    28    26    21   ar
    29     9     1   ar
    30     8     4   ar
    31    15    10   ar
    32    19    20    1
@<TRIPOS>MOLECULE
*****
 29 32 0 0 0
SMALL
GASTEIGER

@<TRIPOS>ATOM
      1 C         139.2796  139.8822  168.4592 C.ar    1  UNL1        0.1525
      2 C         139.1959  139.9788  169.9537 C.ar    1  UNL1        0.0393
      3 C         140.2693  140.6929  170.7203 C.ar    1  UNL1        0.0417
      4 C         141.4264  141.3105  169.9925 C.ar    1  UNL1        0.1640
      5 N         142.6253  142.0716  170.4757 N.ar    1  UNL1       -0.2234
      6 C         143.4499  142.4454  169.2798 C.ar    1  UNL1        0.1197
      7 C         142.7607  141.9154  168.0575 C.ar    1  UNL1        0.1036
      8 N         141.5101  141.2140  168.4980 N.ar    1  UNL1       -0.2096
      9 N         140.4367  140.4998  167.7313 N.ar    1  UNL1       -0.1486
     10 C         143.2382  142.0611  166.6430 C.ar    1  UNL1        0.0196
     11 C         143.9914  143.2903  166.2286 C.ar    1  UNL1        0.0060
     12 C         144.4689  143.4361  164.8141 C.ar    1  UNL1        0.0520
     13 C         144.1933  142.3526  163.8141 C.ar    1  UNL1        0.1807
     14 C         143.4401  141.1234  164.2285 C.ar    1  UNL1        0.0520
     15 C         142.9626  140.9777  165.6430 C.ar    1  UNL1        0.0060
     16 S         144.6708  142.4984  162.3996 S.O     1  UNL1        0.0581
     17 C         143.8820  143.3187  161.4224 C.3     1  UNL1        0.3254
     18 O         145.9371  141.8237  161.9623 O.co2   1  UNL1       -0.6774
     19 N         138.2062  139.1681  167.6924 N.pl3   1  UNL1       -0.2966
     20 H         137.4372  138.7790  168.1683 H       1  UNL1        0.1537
     21 C         138.5011  138.8038  163.2169 C.ar    1  UNL1        0.1808
     22 C         138.1182  140.1138  163.8391 C.ar    1  UNL1        0.0532
     23 C         138.0199  140.2353  165.3310 C.ar    1  UNL1        0.0191
     24 C         138.3045  139.0467  166.2006 C.ar    1  UNL1        0.0497
     25 C         138.6875  137.7366  165.5783 C.ar    1  UNL1        0.0191
     26 C         138.7858  137.6152  164.0865 C.ar    1  UNL1        0.0532
     27 C         137.7349  139.5353  160.8446 C.3     1  UNL1        0.3254
     28 S         138.5994  138.6825  161.7251 S.O     1  UNL1        0.0581
     29 O         139.5623  137.7082  161.1137 O.co2   1  UNL1       -0.6774
@<TRIPOS>UNITY_ATOM_ATTR
16 1
charge 1
18 1
charge -1
28 1
charge 1
29 1
charge -1
@<TRIPOS>BOND
     1    27    28    1
     2    28    29    2
     3    28    21    1
     4    21    22   ar
     5    22    23   ar
     6    23    24   ar
     7    24    19    1
     8    19     1    1
     9     1     2   ar
    10     2     3   ar
    11     3     4   ar
    12     4     5   ar
    13     5     6   ar
    14     6     7   ar
    15     7    10    1
    16    10    11   ar
    17    11    12   ar
    18    12    13   ar
    19    13    16    1
    20    16    17    1
    21    16    18    2
    22    13    14   ar
    23    14    15   ar
    24     7     8   ar
    25     8     9   ar
    26    24    25   ar
    27    25    26   ar
    28    26    21   ar
    29     9     1   ar
    30     8     4   ar
    31    15    10   ar
    32    19    20    1
@<TRIPOS>MOLECULE
*****
 29 32 0 0 0
SMALL
GASTEIGER

@<TRIPOS>ATOM
      1 C         140.8522  141.8949  167.0774 C.ar    1  UNL1        0.1525
      2 C         141.0999  141.5350  168.5123 C.ar    1  UNL1        0.0393
      3 C         141.9803  140.3690  168.8518 C.ar    1  UNL1        0.0417
      4 C         142.6130  139.5629  167.7563 C.ar    1  UNL1        0.1640
      5 N         143.5204  138.3688  167.7847 N.ar    1  UNL1       -0.2234
      6 C         143.8334  137.9907  166.3673 C.ar    1  UNL1        0.1197
      7 C         143.1195  138.9512  165.4629 C.ar    1  UNL1        0.1036
      8 N         142.3652  139.9229  166.3214 N.ar    1  UNL1       -0.2096
      9 N         141.4849  141.0889  165.9820 N.ar    1  UNL1       -0.1486
     10 C         143.1538  138.9417  163.9634 C.ar    1  UNL1        0.0196
     11 C         144.1986  139.7314  163.2321 C.ar    1  UNL1        0.0060
     12 C         144.2329  139.7219  161.7325 C.ar    1  UNL1        0.0520
     13 C         143.2225  138.9228  160.9642 C.ar    1  UNL1        0.1807
     14 C         142.1776  138.1332  161.6955 C.ar    1  UNL1        0.0520
     15 C         142.1433  138.1426  163.1951 C.ar    1  UNL1        0.0060
     16 S         143.2568  138.9133  159.4646 S.O     1  UNL1        0.0581
     17 C         142.4487  137.9054  158.7023 C.3     1  UNL1        0.3254
     18 O         144.0991  139.9118  158.7274 O.co2   1  UNL1       -0.6774
     19 N         139.9718  143.0610  166.7379 N.pl3   1  UNL1       -0.2966
     20 H         139.3583  143.4282  167.4147 H       1  UNL1        0.1537
     21 C         140.1346  144.8809  162.6256 C.ar    1  UNL1        0.1808
     22 C         138.8111  144.6597  163.2959 C.ar    1  UNL1        0.0532
     23 C         138.7568  144.0530  164.6667 C.ar    1  UNL1        0.0191
     24 C         140.0260  143.6677  165.3671 C.ar    1  UNL1        0.0497
     25 C         141.3495  143.8890  164.6967 C.ar    1  UNL1        0.0191
     26 C         141.4038  144.4956  163.3260 C.ar    1  UNL1        0.0532
     27 C         141.2150  145.0178  160.2668 C.3     1  UNL1        0.3254
     28 S         140.1888  145.4876  161.2548 S.O     1  UNL1        0.0581
     29 O         139.2168  146.5641  160.8720 O.co2   1  UNL1       -0.6774
@<TRIPOS>UNITY_ATOM_ATTR
16 1
charge 1
18 1
charge -1
28 1
charge 1
29 1
charge -1
@<TRIPOS>BOND
     1    27    28    1
     2    28    29    2
     3    28    21    1
     4    21    22   ar
     5    22    23   ar
     6    23    24   ar
     7    24    19    1
     8    19     1    1
     9     1     2   ar
    10     2     3   ar
    11     3     4   ar
    12     4     5   ar
    13     5     6   ar
    14     6     7   ar
    15     7    10    1
    16    10    11   ar
    17    11    12   ar
    18    12    13   ar
    19    13    16    1
    20    16    17    1
    21    16    18    2
    22    13    14   ar
    23    14    15   ar
    24     7     8   ar
    25     8     9   ar
    26    24    25   ar
    27    25    26   ar
    28    26    21   ar
    29     9     1   ar
    30     8     4   ar
    31    15    10   ar
    32    19    20    1
@<TRIPOS>MOLECULE
*****
 29 32 0 0 0
SMALL
GASTEIGER

@<TRIPOS>ATOM
      1 C         138.1005  141.3844  161.9562 C.ar    1  UNL1        0.1525
      2 C         137.8123  140.1675  161.1280 C.ar    1  UNL1        0.0393
      3 C         138.0016  138.7996  161.7136 C.ar    1  UNL1        0.0417
      4 C         138.4792  138.6486  163.1275 C.ar    1  UNL1        0.1640
      5 N         138.7563  137.4385  163.9696 N.ar    1  UNL1       -0.2234
      6 C         139.2158  137.9076  165.3182 C.ar    1  UNL1        0.1197
      7 C         139.2227  139.4076  165.3096 C.ar    1  UNL1        0.1036
      8 N         138.7674  139.8656  163.9558 N.ar    1  UNL1       -0.2096
      9 N         138.5781  141.2334  163.3701 N.ar    1  UNL1       -0.1486
     10 C         139.6159  140.2940  166.4540 C.ar    1  UNL1        0.0196
     11 C         139.2761  139.8981  167.8604 C.ar    1  UNL1        0.0060
     12 C         139.6693  140.7845  169.0048 C.ar    1  UNL1        0.0520
     13 C         140.4021  142.0668  168.7430 C.ar    1  UNL1        0.1807
     14 C         140.7418  142.4627  167.3366 C.ar    1  UNL1        0.0520
     15 C         140.3487  141.5763  166.1922 C.ar    1  UNL1        0.0060
     16 S         140.7953  142.9532  169.8874 S.O     1  UNL1        0.0581
     17 C         142.2451  143.1649  170.2084 C.3     1  UNL1        0.3254
     18 O         139.7385  143.6280  170.7108 O.co2   1  UNL1       -0.6774
     19 N         137.9112  142.7523  161.3705 N.pl3   1  UNL1       -0.2966
     20 H         137.1171  143.2838  161.6077 H       1  UNL1        0.1537
     21 C         140.9727  144.4269  158.5292 C.ar    1  UNL1        0.1808
     22 C         139.9561  143.4388  158.0392 C.ar    1  UNL1        0.0532
     23 C         138.9355  142.8806  158.9863 C.ar    1  UNL1        0.0191
     24 C         138.9317  143.3105  160.4234 C.ar    1  UNL1        0.0497
     25 C         139.9484  144.2986  160.9134 C.ar    1  UNL1        0.0191
     26 C         140.9688  144.8568  159.9663 C.ar    1  UNL1        0.0532
     27 C         142.4156  144.1912  156.3816 C.3     1  UNL1        0.3254
     28 S         141.9932  144.9850  157.5821 S.O     1  UNL1        0.0581
     29 O         142.5913  146.3372  157.8355 O.co2   1  UNL1       -0.6774
@<TRIPOS>UNITY_ATOM_ATTR
16 1
charge 1
18 1
charge -1
28 1
charge 1
29 1
charge -1
@<TRIPOS>BOND
     1    27    28    1
     2    28    29    2
     3    28    21    1
     4    21    22   ar
     5    22    23   ar
     6    23    24   ar
     7    24    19    1
     8    19     1    1
     9     1     2   ar
    10     2     3   ar
    11     3     4   ar
    12     4     5   ar
    13     5     6   ar
    14     6     7   ar
    15     7    10    1
    16    10    11   ar
    17    11    12   ar
    18    12    13   ar
    19    13    16    1
    20    16    17    1
    21    16    18    2
    22    13    14   ar
    23    14    15   ar
    24     7     8   ar
    25     8     9   ar
    26    24    25   ar
    27    25    26   ar
    28    26    21   ar
    29     9     1   ar
    30     8     4   ar
    31    15    10   ar
    32    19    20    1
@<TRIPOS>MOLECULE
*****
 29 32 0 0 0
SMALL
GASTEIGER

@<TRIPOS>ATOM
      1 C         143.3126  142.4731  167.4650 C.ar    1  UNL1        0.1525
      2 C         143.4562  142.5077  168.9577 C.ar    1  UNL1        0.0393
      3 C         142.4354  141.8329  169.8252 C.ar    1  UNL1        0.0417
      4 C         141.2709  141.1236  169.2000 C.ar    1  UNL1        0.1640
      5 N         140.1153  140.3743  169.7944 N.ar    1  UNL1       -0.2234
      6 C         139.2575  139.8767  168.6690 C.ar    1  UNL1        0.1197
      7 C         139.8829  140.3184  167.3791 C.ar    1  UNL1        0.1036
      8 N         141.1273  141.0891  167.7073 N.ar    1  UNL1       -0.2096
      9 N         142.1481  141.7638  166.8398 N.ar    1  UNL1       -0.1486
     10 C         139.3565  140.0386  166.0027 C.ar    1  UNL1        0.0196
     11 C         139.4505  138.6552  165.4306 C.ar    1  UNL1        0.0060
     12 C         138.9240  138.3754  164.0542 C.ar    1  UNL1        0.0520
     13 C         138.3035  139.4790  163.2498 C.ar    1  UNL1        0.1807
     14 C         138.2095  140.8624  163.8219 C.ar    1  UNL1        0.0520
     15 C         138.7360  141.1422  165.1983 C.ar    1  UNL1        0.0060
     16 S         137.7771  139.1992  161.8734 S.O     1  UNL1        0.0581
     17 C         137.7669  140.2855  160.8391 C.3     1  UNL1        0.3254
     18 O         137.2607  137.8330  161.5313 O.co2   1  UNL1       -0.6774
     19 N         144.3335  143.1479  166.5975 N.pl3   1  UNL1       -0.2966
     20 H         145.1051  143.6015  167.0073 H       1  UNL1        0.1537
     21 C         143.8687  143.0985  162.1218 C.ar    1  UNL1        0.1808
     22 C         144.5849  141.9769  162.8139 C.ar    1  UNL1        0.0532
     23 C         144.7398  141.9933  164.3058 C.ar    1  UNL1        0.0191
     24 C         144.1786  143.1314  165.1056 C.ar    1  UNL1        0.0497
     25 C         143.4623  144.2531  164.4135 C.ar    1  UNL1        0.0191
     26 C         143.3074  144.2366  162.9216 C.ar    1  UNL1        0.0532
     27 C         144.5102  142.1159  159.8039 C.3     1  UNL1        0.3254
     28 S         143.7138  143.0820  160.6300 S.O     1  UNL1        0.0581
     29 O         142.7625  144.0316  159.9641 O.co2   1  UNL1       -0.6774
@<TRIPOS>UNITY_ATOM_ATTR
16 1
charge 1
18 1
charge -1
28 1
charge 1
29 1
charge -1
@<TRIPOS>BOND
     1    27    28    1
     2    28    29    2
     3    28    21    1
     4    21    22   ar
     5    22    23   ar
     6    23    24   ar
     7    24    19    1
     8    19     1    1
     9     1     2   ar
    10     2     3   ar
    11     3     4   ar
    12     4     5   ar
    13     5     6   ar
    14     6     7   ar
    15     7    10    1
    16    10    11   ar
    17    11    12   ar
    18    12    13   ar
    19    13    16    1
    20    16    17    1
    21    16    18    2
    22    13    14   ar
    23    14    15   ar
    24     7     8   ar
    25     8     9   ar
    26    24    25   ar
    27    25    26   ar
    28    26    21   ar
    29     9     1   ar
    30     8     4   ar
    31    15    10   ar
    32    19    20    1
@<TRIPOS>MOLECULE
*****
 29 32 0 0 0
SMALL
GASTEIGER

@<TRIPOS>ATOM
      1 C         139.2592  142.1147  163.6890 C.ar    1  UNL1        0.1525
      2 C         138.2800  143.1346  164.1898 C.ar    1  UNL1        0.0393
      3 C         138.2081  144.4861  163.5431 C.ar    1  UNL1        0.0417
      4 C         139.1154  144.8176  162.3955 C.ar    1  UNL1        0.1640
      5 N         139.2715  146.0570  161.5650 N.ar    1  UNL1       -0.2234
      6 C         140.3471  145.8030  160.5509 C.ar    1  UNL1        0.1197
      7 C         140.8558  144.4066  160.7546 C.ar    1  UNL1        0.1036
      8 N         140.0946  143.7977  161.8946 N.ar    1  UNL1       -0.2096
      9 N         140.1665  142.4462  162.5414 N.ar    1  UNL1       -0.1486
     10 C         141.9361  143.7369  159.9582 C.ar    1  UNL1        0.0196
     11 C         143.0510  143.0202  160.6606 C.ar    1  UNL1        0.0060
     12 C         144.1313  142.3504  159.8641 C.ar    1  UNL1        0.0520
     13 C         144.0967  142.3972  158.3653 C.ar    1  UNL1        0.1807
     14 C         142.9818  143.1139  157.6629 C.ar    1  UNL1        0.0520
     15 C         141.9015  143.7837  158.4593 C.ar    1  UNL1        0.0060
     16 S         145.1770  141.7274  157.5688 S.O     1  UNL1        0.0581
     17 C         146.3820  142.5080  157.1344 C.3     1  UNL1        0.3254
     18 O         145.0523  140.2772  157.2068 O.co2   1  UNL1       -0.6774
     19 N         139.3312  140.7631  164.3357 N.pl3   1  UNL1       -0.2966
     20 H         139.2530  139.9498  163.7864 H       1  UNL1        0.1537
     21 C         139.9042  140.4260  168.7863 C.ar    1  UNL1        0.1808
     22 C         138.9458  139.5120  168.0822 C.ar    1  UNL1        0.0532
     23 C         138.7547  139.6243  166.5986 C.ar    1  UNL1        0.0191
     24 C         139.5221  140.6507  165.8192 C.ar    1  UNL1        0.0497
     25 C         140.4806  141.5649  166.5234 C.ar    1  UNL1        0.0191
     26 C         140.6716  141.4525  168.0069 C.ar    1  UNL1        0.0532
     27 C         141.2487  141.0070  170.9322 C.3     1  UNL1        0.3254
     28 S         140.0952  140.3137  170.2698 S.O     1  UNL1        0.0581
     29 O         139.1326  139.5080  171.0911 O.co2   1  UNL1       -0.6774
@<TRIPOS>UNITY_ATOM_ATTR
16 1
charge 1
18 1
charge -1
28 1
charge 1
29 1
charge -1
@<TRIPOS>BOND
     1    27    28    1
     2    28    29    2
     3    28    21    1
     4    21    22   ar
     5    22    23   ar
     6    23    24   ar
     7    24    19    1
     8    19     1    1
     9     1     2   ar
    10     2     3   ar
    11     3     4   ar
    12     4     5   ar
    13     5     6   ar
    14     6     7   ar
    15     7    10    1
    16    10    11   ar
    17    11    12   ar
    18    12    13   ar
    19    13    16    1
    20    16    17    1
    21    16    18    2
    22    13    14   ar
    23    14    15   ar
    24     7     8   ar
    25     8     9   ar
    26    24    25   ar
    27    25    26   ar
    28    26    21   ar
    29     9     1   ar
    30     8     4   ar
    31    15    10   ar
    32    19    20    1
@<TRIPOS>MOLECULE
*****
 29 32 0 0 0
SMALL
GASTEIGER

@<TRIPOS>ATOM
      1 C         142.8158  139.3762  166.7522 C.ar    1  UNL1        0.1525
      2 C         142.7082  139.0684  168.2162 C.ar    1  UNL1        0.0393
      3 C         141.9568  139.9960  169.1244 C.ar    1  UNL1        0.0417
      4 C         141.3130  141.2316  168.5684 C.ar    1  UNL1        0.1640
      5 N         140.5137  142.3243  169.2144 N.ar    1  UNL1       -0.2234
      6 C         140.1273  143.3074  168.1494 C.ar    1  UNL1        0.1197
      7 C         140.6879  142.8223  166.8454 C.ar    1  UNL1        0.1036
      8 N         141.4207  141.5394  167.1044 N.ar    1  UNL1       -0.2096
      9 N         142.1721  140.6117  166.1962 N.ar    1  UNL1       -0.1486
     10 C         140.5413  143.5010  165.5158 C.ar    1  UNL1        0.0196
     11 C         141.7135  143.5856  164.5836 C.ar    1  UNL1        0.0060
     12 C         141.5670  144.2642  163.2540 C.ar    1  UNL1        0.0520
     13 C         140.2483  144.8584  162.8564 C.ar    1  UNL1        0.1807
     14 C         139.0762  144.7739  163.7886 C.ar    1  UNL1        0.0520
     15 C         139.2227  144.0952  165.1182 C.ar    1  UNL1        0.0060
     16 S         140.1018  145.5371  161.5268 S.O     1  UNL1        0.0581
     17 C         140.9905  145.1463  160.3833 C.3     1  UNL1        0.3254
     18 O         139.0667  146.6066  161.3407 O.co2   1  UNL1       -0.6774
     19 N         143.5672  138.4485  165.8439 N.pl3   1  UNL1       -0.2966
     20 H         144.1050  137.7165  166.2236 H       1  UNL1        0.1537
     21 C         143.3633  139.0115  161.3840 C.ar    1  UNL1        0.1808
     22 C         142.3309  138.1773  162.0825 C.ar    1  UNL1        0.0532
     23 C         142.3988  137.9896  163.5693 C.ar    1  UNL1        0.0191
     24 C         143.4993  138.6362  164.3573 C.ar    1  UNL1        0.0497
     25 C         144.5318  139.4704  163.6586 C.ar    1  UNL1        0.0191
     26 C         144.4638  139.6581  162.1720 C.ar    1  UNL1        0.0532
     27 C         142.6956  138.1299  159.0330 C.3     1  UNL1        0.3254
     28 S         143.2953  139.1992  159.8973 S.O     1  UNL1        0.0581
     29 O         143.8271  140.4562  159.2749 O.co2   1  UNL1       -0.6774
@<TRIPOS>UNITY_ATOM_ATTR
16 1
charge 1
18 1
charge -1
28 1
charge 1
29 1
charge -1
@<TRIPOS>BOND
     1    27    28    1
     2    28    29    2
     3    28    21    1
     4    21    22   ar
     5    22    23   ar
     6    23    24   ar
     7    24    19    1
     8    19     1    1
     9     1     2   ar
    10     2     3   ar
    11     3     4   ar
    12     4     5   ar
    13     5     6   ar
    14     6     7   ar
    15     7    10    1
    16    10    11   ar
    17    11    12   ar
    18    12    13   ar
    19    13    16    1
    20    16    17    1
    21    16    18    2
    22    13    14   ar
    23    14    15   ar
    24     7     8   ar
    25     8     9   ar
    26    24    25   ar
    27    25    26   ar
    28    26    21   ar
    29     9     1   ar
    30     8     4   ar
    31    15    10   ar
    32    19    20    1
@<TRIPOS>MOLECULE
*****
 29 32 0 0 0
SMALL
GASTEIGER

@<TRIPOS>ATOM
      1 C         139.8085  139.4159  164.4297 C.ar    1  UNL1        0.1525
      2 C         140.1855  137.9848  164.6744 C.ar    1  UNL1        0.0393
      3 C         141.0517  137.2584  163.6886 C.ar    1  UNL1        0.0417
      4 C         141.5409  137.9630  162.4581 C.ar    1  UNL1        0.1640
      5 N         142.4017  137.5087  161.3167 N.ar    1  UNL1       -0.2234
      6 C         142.5567  138.6590  160.3666 C.ar    1  UNL1        0.1197
      7 C         141.7916  139.8242  160.9207 C.ar    1  UNL1        0.1036
      8 N         141.1639  139.3940  162.2134 N.ar    1  UNL1       -0.2096
      9 N         140.2977  140.1205  163.1992 N.ar    1  UNL1       -0.1486
     10 C         141.6748  141.1813  160.2926 C.ar    1  UNL1        0.0196
     11 C         140.3559  141.6454  159.7495 C.ar    1  UNL1        0.0060
     12 C         140.2391  143.0025  159.1213 C.ar    1  UNL1        0.0520
     13 C         141.4412  143.8956  159.0363 C.ar    1  UNL1        0.1807
     14 C         142.7601  143.4316  159.5795 C.ar    1  UNL1        0.0520
     15 C         142.8769  142.0745  160.2076 C.ar    1  UNL1        0.0060
     16 S         141.3244  145.2528  158.4082 S.O     1  UNL1        0.0581
     17 C         139.9722  145.8154  158.0842 C.3     1  UNL1        0.3254
     18 O         142.5598  146.0472  158.1040 O.co2   1  UNL1       -0.6774
     19 N         138.9422  140.1424  165.4156 N.pl3   1  UNL1       -0.2966
     20 H         137.9848  140.2729  165.2271 H       1  UNL1        0.1537
     21 C         140.7197  141.7249  169.2348 C.ar    1  UNL1        0.1808
     22 C         140.8386  142.5179  167.9671 C.ar    1  UNL1        0.0532
     23 C         140.2461  141.9904  166.6940 C.ar    1  UNL1        0.0191
     24 C         139.5347  140.6699  166.6886 C.ar    1  UNL1        0.0497
     25 C         139.4157  139.8769  167.9563 C.ar    1  UNL1        0.0191
     26 C         140.0082  140.4044  169.2294 C.ar    1  UNL1        0.0532
     27 C         142.6556  142.9193  170.4899 C.3     1  UNL1        0.3254
     28 S         141.3121  142.2525  170.5078 S.O     1  UNL1        0.0581
     29 O         140.5611  142.1132  171.7988 O.co2   1  UNL1       -0.6774
@<TRIPOS>UNITY_ATOM_ATTR
16 1
charge 1
18 1
charge -1
28 1
charge 1
29 1
charge -1
@<TRIPOS>BOND
     1    27    28    1
     2    28    29    2
     3    28    21    1
     4    21    22   ar
     5    22    23   ar
     6    23    24   ar
     7    24    19    1
     8    19     1    1
     9     1     2   ar
    10     2     3   ar
    11     3     4   ar
    12     4     5   ar
    13     5     6   ar
    14     6     7   ar
    15     7    10    1
    16    10    11   ar
    17    11    12   ar
    18    12    13   ar
    19    13    16    1
    20    16    17    1
    21    16    18    2
    22    13    14   ar
    23    14    15   ar
    24     7     8   ar
    25     8     9   ar
    26    24    25   ar
    27    25    26   ar
    28    26    21   ar
    29     9     1   ar
    30     8     4   ar
    31    15    10   ar
    32    19    20    1
@<TRIPOS>MOLECULE
*****
 29 32 0 0 0
SMALL
GASTEIGER

@<TRIPOS>ATOM
      1 C         138.7901  140.1571  164.0792 C.ar    1  UNL1        0.1525
      2 C         138.0703  141.4000  164.5115 C.ar    1  UNL1        0.0393
      3 C         137.7603  142.4736  163.5109 C.ar    1  UNL1        0.0417
      4 C         138.1700  142.3042  162.0779 C.ar    1  UNL1        0.1640
      5 N         138.0023  143.1848  160.8752 N.ar    1  UNL1       -0.2234
      6 C         138.6185  142.4861  159.6996 C.ar    1  UNL1        0.1197
      7 C         139.1670  141.1736  160.1757 C.ar    1  UNL1        0.1036
      8 N         138.8898  141.0612  161.6456 N.ar    1  UNL1       -0.2096
      9 N         139.1998  139.9877  162.6462 N.ar    1  UNL1       -0.1486
     10 C         139.8693  140.1528  159.3304 C.ar    1  UNL1        0.0196
     11 C         139.1658  139.5388  158.1565 C.ar    1  UNL1        0.0060
     12 C         139.8681  138.5179  157.3112 C.ar    1  UNL1        0.0520
     13 C         141.2740  138.1111  157.6396 C.ar    1  UNL1        0.1807
     14 C         141.9775  138.7251  158.8135 C.ar    1  UNL1        0.0520
     15 C         141.2752  139.7459  159.6589 C.ar    1  UNL1        0.0060
     16 S         141.9764  137.0903  156.7943 S.O     1  UNL1        0.0581
     17 C         141.1927  136.2407  155.8382 C.3     1  UNL1        0.3254
     18 O         143.4624  136.9190  156.9051 O.co2   1  UNL1       -0.6774
     19 N         139.1001  139.0834  165.0798 N.pl3   1  UNL1       -0.2966
     20 H         138.8349  138.1524  164.9010 H       1  UNL1        0.1537
     21 C         141.2426  140.1184  168.8993 C.ar    1  UNL1        0.1808
     22 C         142.0263  139.8516  167.6485 C.ar    1  UNL1        0.0532
     23 C         141.3121  139.5066  166.3752 C.ar    1  UNL1        0.0191
     24 C         139.8143  139.4284  166.3530 C.ar    1  UNL1        0.0497
     25 C         139.0307  139.6952  167.6039 C.ar    1  UNL1        0.0191
     26 C         139.7448  140.0402  168.8771 C.ar    1  UNL1        0.0532
     27 C         141.2082  141.1074  171.3015 C.3     1  UNL1        0.3254
     28 S         141.9568  140.4633  170.1725 S.O     1  UNL1        0.0581
     29 O         143.4196  140.1642  170.3166 O.co2   1  UNL1       -0.6774
@<TRIPOS>UNITY_ATOM_ATTR
16 1
charge 1
18 1
charge -1
28 1
charge 1
29 1
charge -1
@<TRIPOS>BOND
     1    27    28    1
     2    28    29    2
     3    28    21    1
     4    21    22   ar
     5    22    23   ar
     6    23    24   ar
     7    24    19    1
     8    19     1    1
     9     1     2   ar
    10     2     3   ar
    11     3     4   ar
    12     4     5   ar
    13     5     6   ar
    14     6     7   ar
    15     7    10    1
    16    10    11   ar
    17    11    12   ar
    18    12    13   ar
    19    13    16    1
    20    16    17    1
    21    16    18    2
    22    13    14   ar
    23    14    15   ar
    24     7     8   ar
    25     8     9   ar
    26    24    25   ar
    27    25    26   ar
    28    26    21   ar
    29     9     1   ar
    30     8     4   ar
    31    15    10   ar
    32    19    20    1
