@<TRIPOS>MOLECULE
*****
 30 33 0 0 0
SMALL
GASTEIGER

@<TRIPOS>ATOM
      1 N         138.3675  140.1900  159.6084 N.pl3   1  UNL1       -0.2847
      2 C         137.9317  140.6128  160.9799 C.3     1  UNL1        0.1141
      3 C         138.4738  139.9098  162.1890 C.3     1  UNL1        0.1149
      4 N         139.4517  138.7840  162.0265 N.am    1  UNL1       -0.2760
      5 C         139.9938  138.0810  163.2357 C.2     1  UNL1        0.2257
      6 O         140.9717  136.9553  163.0731 O.2     1  UNL1       -0.2749
      7 C         139.8875  138.3613  160.6549 C.3     1  UNL1        0.1149
      8 C         139.3454  139.0643  159.4458 C.3     1  UNL1        0.1141
      9 C         135.5132  141.3110  155.3098 C.3     1  UNL1        0.0524
     10 C         136.5134  141.4083  156.4234 C.ar    1  UNL1        0.0633
     11 N         136.7337  140.3896  157.5022 N.ar    1  UNL1       -0.2287
     12 C         137.8255  140.8931  158.3992 C.ar    1  UNL1        0.1625
     13 S         138.2800  142.2229  157.8748 S.2     1  UNL1       -0.0562
     14 C         137.4691  142.5413  156.6537 C.ar    1  UNL1        0.0238
     15 C         137.5923  143.7760  155.8108 C.3     1  UNL1        0.0395
     16 C         139.5579  138.5038  164.6072 C.3     1  UNL1        0.0853
     17 C         138.3868  137.8331  165.2620 C.3     1  UNL1        0.0096
     18 C         137.9510  138.2559  166.6337 C.3     1  UNL1        0.0005
     19 C         138.6863  139.3493  167.3505 C.3     1  UNL1        0.0005
     20 C         139.8574  140.0199  166.6957 C.3     1  UNL1        0.0096
     21 C         140.2932  139.5972  165.3241 C.3     1  UNL1        0.0851
     22 C         141.4643  140.2679  164.6693 C.2     1  UNL1        0.2231
     23 O         141.2386  141.3607  163.6668 O.2     1  UNL1       -0.2751
     24 N         142.8611  139.8458  165.0169 N.am    1  UNL1       -0.2959
     25 H         143.0092  139.1285  165.6749 H       1  UNL1        0.1502
     26 C         144.0321  140.5164  164.3621 C.3     1  UNL1        0.1364
     27 C         145.2061  140.7321  163.4537 C.3     1  UNL1        0.0353
     28 C         144.4472  139.4392  163.4044 C.3     1  UNL1        0.0353
     29 C         144.0239  141.8266  165.0925 C.1     1  UNL1        0.0896
     30 N         144.0157  143.1367  165.8229 N.1     1  UNL1       -0.1943
@<TRIPOS>BOND
     1     9    10    1
     2    10    11   ar
     3    11    12   ar
     4    12     1    1
     5     1     2    1
     6     2     3    1
     7     3     4    1
     8     4     5   am
     9     5     6    2
    10    16     5    1
    11    16    17    1
    12    17    18    1
    13    18    19    1
    14    19    20    1
    15    20    21    1
    16    21    22    1
    17    22    23    2
    18    22    24   am
    19    24    26    1
    20    26    29    1
    21    29    30    3
    22    26    27    1
    23    27    28    1
    24     4     7    1
    25     7     8    1
    26    12    13   ar
    27    13    14   ar
    28    14    15    1
    29    14    10   ar
    30     8     1    1
    31    21    16    1
    32    28    26    1
    33    24    25    1
@<TRIPOS>MOLECULE
*****
 30 33 0 0 0
SMALL
GASTEIGER

@<TRIPOS>ATOM
      1 N         139.7421  139.0302  159.8261 N.pl3   1  UNL1       -0.2847
      2 C         140.2271  138.6491  161.1934 C.3     1  UNL1        0.1141
      3 C         139.6337  139.2996  162.4078 C.3     1  UNL1        0.1149
      4 N         138.5554  140.3310  162.2549 N.am    1  UNL1       -0.2760
      5 C         137.9620  140.9814  163.4694 C.2     1  UNL1        0.2257
      6 O         136.8837  142.0129  163.3165 O.2     1  UNL1       -0.2749
      7 C         138.0704  140.7120  160.8876 C.3     1  UNL1        0.1149
      8 C         138.6638  140.0616  159.6732 C.3     1  UNL1        0.1141
      9 C         140.2301  136.5251  155.2036 C.3     1  UNL1        0.0524
     10 C         140.5598  137.2283  156.4868 C.ar    1  UNL1        0.0633
     11 N         139.5698  137.7538  157.4838 N.ar    1  UNL1       -0.2287
     12 C         140.3355  138.3798  158.6116 C.ar    1  UNL1        0.1625
     13 S         141.7987  138.2412  158.3117 S.2     1  UNL1       -0.0562
     14 C         141.9373  137.5295  156.9985 C.ar    1  UNL1        0.0238
     15 C         143.2270  137.1804  156.3168 C.3     1  UNL1        0.0395
     16 C         138.4469  140.6004  164.8367 C.3     1  UNL1        0.0853
     17 C         137.9546  139.3393  165.4827 C.3     1  UNL1        0.0096
     18 C         138.4395  138.9583  166.8501 C.3     1  UNL1        0.0005
     19 C         139.4168  139.8383  167.5714 C.3     1  UNL1        0.0005
     20 C         139.9092  141.0994  166.9254 C.3     1  UNL1        0.0096
     21 C         139.4243  141.4804  165.5581 C.3     1  UNL1        0.0851
     22 C         139.9166  142.7415  164.9122 C.2     1  UNL1        0.2231
     23 O         139.2731  144.0551  165.2445 O.2     1  UNL1       -0.2751
     24 N         141.0525  142.6891  163.9339 N.am    1  UNL1       -0.2959
     25 H         141.4748  141.8269  163.7158 H       1  UNL1        0.1502
     26 C         141.5448  143.9501  163.2879 C.3     1  UNL1        0.1364
     27 C         142.4073  145.1435  163.0022 C.3     1  UNL1        0.0353
     28 C         142.7818  144.1934  164.1008 C.3     1  UNL1        0.0353
     29 C         140.4788  144.1449  162.2507 C.1     1  UNL1        0.0896
     30 N         139.4130  144.3396  161.2135 N.1     1  UNL1       -0.1943
@<TRIPOS>BOND
     1     9    10    1
     2    10    11   ar
     3    11    12   ar
     4    12     1    1
     5     1     2    1
     6     2     3    1
     7     3     4    1
     8     4     5   am
     9     5     6    2
    10    16     5    1
    11    16    17    1
    12    17    18    1
    13    18    19    1
    14    19    20    1
    15    20    21    1
    16    21    22    1
    17    22    23    2
    18    22    24   am
    19    24    26    1
    20    26    29    1
    21    29    30    3
    22    26    27    1
    23    27    28    1
    24     4     7    1
    25     7     8    1
    26    12    13   ar
    27    13    14   ar
    28    14    15    1
    29    14    10   ar
    30     8     1    1
    31    21    16    1
    32    28    26    1
    33    24    25    1
@<TRIPOS>MOLECULE
*****
 30 33 0 0 0
SMALL
GASTEIGER

@<TRIPOS>ATOM
      1 N         139.9348  138.9318  160.0768 N.pl3   1  UNL1       -0.2847
      2 C         140.0724  140.3811  160.4378 C.3     1  UNL1        0.1141
      3 C         139.6451  140.8602  161.7934 C.3     1  UNL1        0.1149
      4 N         139.0801  139.8899  162.7881 N.am    1  UNL1       -0.2760
      5 C         138.6528  140.3691  164.1438 C.2     1  UNL1        0.2257
      6 O         138.0878  139.3988  165.1384 O.2     1  UNL1       -0.2749
      7 C         138.9425  138.4406  162.4271 C.3     1  UNL1        0.1149
      8 C         139.3699  137.9615  161.0715 C.3     1  UNL1        0.1141
      9 C         139.8084  137.0276  155.1534 C.3     1  UNL1        0.0524
     10 C         140.3040  137.5773  156.4581 C.ar    1  UNL1        0.0633
     11 N         139.4553  137.9478  157.6381 N.ar    1  UNL1       -0.2287
     12 C         140.3622  138.4526  158.7211 C.ar    1  UNL1        0.1625
     13 S         141.7713  138.3941  158.2104 S.2     1  UNL1       -0.0562
     14 C         141.7354  137.8532  156.8118 C.ar    1  UNL1        0.0238
     15 C         142.9225  137.6277  155.9229 C.3     1  UNL1        0.0395
     16 C         138.7904  141.8184  164.5048 C.3     1  UNL1        0.0853
     17 C         137.6195  142.7436  164.3529 C.3     1  UNL1        0.0096
     18 C         137.7572  144.1931  164.7139 C.3     1  UNL1        0.0005
     19 C         139.0657  144.7172  165.2267 C.3     1  UNL1        0.0005
     20 C         140.2366  143.7920  165.3786 C.3     1  UNL1        0.0096
     21 C         140.0990  142.3427  165.0176 C.3     1  UNL1        0.0851
     22 C         141.2698  141.4175  165.1695 C.2     1  UNL1        0.2231
     23 O         142.6022  141.7928  164.5915 O.2     1  UNL1       -0.2751
     24 N         141.1084  140.1170  165.8993 N.am    1  UNL1       -0.2959
     25 H         140.2339  139.8707  166.2786 H       1  UNL1        0.1502
     26 C         142.2793  139.1918  166.0511 C.3     1  UNL1        0.1364
     27 C         143.4328  138.4700  166.6822 C.3     1  UNL1        0.0353
     28 C         142.6360  139.4561  167.4839 C.3     1  UNL1        0.0353
     29 C         142.3292  138.6062  164.6711 C.1     1  UNL1        0.0896
     30 N         142.3791  138.0206  163.2910 N.1     1  UNL1       -0.1943
@<TRIPOS>BOND
     1     9    10    1
     2    10    11   ar
     3    11    12   ar
     4    12     1    1
     5     1     2    1
     6     2     3    1
     7     3     4    1
     8     4     5   am
     9     5     6    2
    10    16     5    1
    11    16    17    1
    12    17    18    1
    13    18    19    1
    14    19    20    1
    15    20    21    1
    16    21    22    1
    17    22    23    2
    18    22    24   am
    19    24    26    1
    20    26    29    1
    21    29    30    3
    22    26    27    1
    23    27    28    1
    24     4     7    1
    25     7     8    1
    26    12    13   ar
    27    13    14   ar
    28    14    15    1
    29    14    10   ar
    30     8     1    1
    31    21    16    1
    32    28    26    1
    33    24    25    1
@<TRIPOS>MOLECULE
*****
 30 33 0 0 0
SMALL
GASTEIGER

@<TRIPOS>ATOM
      1 N         138.1594  140.7149  158.8892 N.pl3   1  UNL1       -0.2847
      2 C         137.4099  140.3817  160.1450 C.3     1  UNL1        0.1141
      3 C         138.1593  139.9925  161.3847 C.3     1  UNL1        0.1149
      4 N         139.6581  139.9365  161.3686 N.am    1  UNL1       -0.2760
      5 C         140.4075  139.5473  162.6085 C.2     1  UNL1        0.2257
      6 O         141.9063  139.4912  162.5923 O.2     1  UNL1       -0.2749
      7 C         140.4077  140.2696  160.1128 C.3     1  UNL1        0.1149
      8 C         139.6583  140.6588  158.8731 C.3     1  UNL1        0.1141
      9 C         134.6864  140.7131  154.9118 C.3     1  UNL1        0.0524
     10 C         135.8137  141.1032  155.8212 C.ar    1  UNL1        0.0633
     11 N         136.2524  140.3625  157.0495 N.ar    1  UNL1       -0.2287
     12 C         137.4101  141.1041  157.6494 C.ar    1  UNL1        0.1625
     13 S         137.6869  142.3032  156.7918 S.2     1  UNL1       -0.0562
     14 C         136.7003  142.3027  155.6619 C.ar    1  UNL1        0.0238
     15 C         136.6152  143.3226  154.5652 C.3     1  UNL1        0.0395
     16 C         139.6579  139.2141  163.8643 C.3     1  UNL1        0.0853
     17 C         139.3246  137.7867  164.1825 C.3     1  UNL1        0.0096
     18 C         138.5751  137.4536  165.4384 C.3     1  UNL1        0.0005
     19 C         138.1588  138.5479  166.3761 C.3     1  UNL1        0.0005
     20 C         138.4922  139.9754  166.0578 C.3     1  UNL1        0.0096
     21 C         139.2417  140.3085  164.8020 C.3     1  UNL1        0.0851
     22 C         139.5750  141.7359  164.4838 C.2     1  UNL1        0.2231
     23 O         140.9320  142.2815  164.8170 O.2     1  UNL1       -0.2751
     24 N         138.5514  142.6178  163.8323 N.am    1  UNL1       -0.2959
     25 H         137.6608  142.2598  163.6135 H       1  UNL1        0.1502
     26 C         138.8847  144.0453  163.5140 C.3     1  UNL1        0.1364
     27 C         139.3208  145.2511  162.7358 C.3     1  UNL1        0.0353
     28 C         139.2965  143.9029  162.0787 C.3     1  UNL1        0.0353
     29 C         138.5886  144.6835  164.8388 C.1     1  UNL1        0.0896
     30 N         138.2927  145.3217  166.1636 N.1     1  UNL1       -0.1943
@<TRIPOS>BOND
     1     9    10    1
     2    10    11   ar
     3    11    12   ar
     4    12     1    1
     5     1     2    1
     6     2     3    1
     7     3     4    1
     8     4     5   am
     9     5     6    2
    10    16     5    1
    11    16    17    1
    12    17    18    1
    13    18    19    1
    14    19    20    1
    15    20    21    1
    16    21    22    1
    17    22    23    2
    18    22    24   am
    19    24    26    1
    20    26    29    1
    21    29    30    3
    22    26    27    1
    23    27    28    1
    24     4     7    1
    25     7     8    1
    26    12    13   ar
    27    13    14   ar
    28    14    15    1
    29    14    10   ar
    30     8     1    1
    31    21    16    1
    32    28    26    1
    33    24    25    1
@<TRIPOS>MOLECULE
*****
 30 33 0 0 0
SMALL
GASTEIGER

@<TRIPOS>ATOM
      1 N         142.3727  138.5374  159.3067 N.pl3   1  UNL1       -0.2847
      2 C         141.9449  139.9339  159.6486 C.3     1  UNL1        0.1141
      3 C         142.5023  140.6125  160.8646 C.3     1  UNL1        0.1149
      4 N         143.4874  139.8947  161.7388 N.am    1  UNL1       -0.2760
      5 C         144.0448  140.5734  162.9549 C.2     1  UNL1        0.2257
      6 O         145.0299  139.8556  163.8291 O.2     1  UNL1       -0.2749
      7 C         143.9152  138.4983  161.3970 C.3     1  UNL1        0.1149
      8 C         143.3579  137.8196  160.1809 C.3     1  UNL1        0.1141
      9 C         139.0692  136.9951  155.4871 C.3     1  UNL1        0.0524
     10 C         140.2969  137.1498  156.3350 C.ar    1  UNL1        0.0633
     11 N         140.4186  138.0026  157.5630 N.ar    1  UNL1       -0.2287
     12 C         141.8154  137.8587  158.0906 C.ar    1  UNL1        0.1625
     13 S         142.5569  136.9171  157.1888 S.2     1  UNL1       -0.0562
     14 C         141.6185  136.4789  156.1037 C.ar    1  UNL1        0.0238
     15 C         141.9444  135.5355  154.9840 C.3     1  UNL1        0.0395
     16 C         143.6169  141.9698  163.2967 C.3     1  UNL1        0.0853
     17 C         144.4045  143.1411  162.7889 C.3     1  UNL1        0.0096
     18 C         143.9766  144.5375  163.1308 C.3     1  UNL1        0.0005
     19 C         142.7612  144.7627  163.9805 C.3     1  UNL1        0.0005
     20 C         141.9736  143.5915  164.4883 C.3     1  UNL1        0.0096
     21 C         142.4015  142.1951  164.1465 C.3     1  UNL1        0.0851
     22 C         141.6139  141.0238  164.6543 C.2     1  UNL1        0.2231
     23 O         142.0669  140.2911  165.8824 O.2     1  UNL1       -0.2751
     24 N         140.3733  140.5853  163.9342 N.am    1  UNL1       -0.2959
     25 H         140.0760  141.0661  163.1283 H       1  UNL1        0.1502
     26 C         139.5857  139.4140  164.4421 C.3     1  UNL1        0.1364
     27 C         138.5638  138.6288  165.2095 C.3     1  UNL1        0.0353
     28 C         138.6373  140.1188  165.3660 C.3     1  UNL1        0.0353
     29 C         140.2607  138.3024  163.6945 C.1     1  UNL1        0.0896
     30 N         140.9357  137.1908  162.9471 N.1     1  UNL1       -0.1943
@<TRIPOS>BOND
     1     9    10    1
     2    10    11   ar
     3    11    12   ar
     4    12     1    1
     5     1     2    1
     6     2     3    1
     7     3     4    1
     8     4     5   am
     9     5     6    2
    10    16     5    1
    11    16    17    1
    12    17    18    1
    13    18    19    1
    14    19    20    1
    15    20    21    1
    16    21    22    1
    17    22    23    2
    18    22    24   am
    19    24    26    1
    20    26    29    1
    21    29    30    3
    22    26    27    1
    23    27    28    1
    24     4     7    1
    25     7     8    1
    26    12    13   ar
    27    13    14   ar
    28    14    15    1
    29    14    10   ar
    30     8     1    1
    31    21    16    1
    32    28    26    1
    33    24    25    1
@<TRIPOS>MOLECULE
*****
 30 33 0 0 0
SMALL
GASTEIGER

@<TRIPOS>ATOM
      1 N         142.1438  140.0030  159.6298 N.pl3   1  UNL1       -0.2847
      2 C         141.0280  140.2776  160.5939 C.3     1  UNL1        0.1141
      3 C         141.1586  141.3862  161.5959 C.3     1  UNL1        0.1149
      4 N         142.4048  142.2202  161.6337 N.am    1  UNL1       -0.2760
      5 C         142.5353  143.3288  162.6357 C.2     1  UNL1        0.2257
      6 O         143.7815  144.1628  162.6735 O.2     1  UNL1       -0.2749
      7 C         143.5205  141.9455  160.6695 C.3     1  UNL1        0.1149
      8 C         143.3900  140.8369  159.6676 C.3     1  UNL1        0.1141
      9 C         143.1707  135.7208  156.7162 C.3     1  UNL1        0.0524
     10 C         142.4854  136.9260  157.2885 C.ar    1  UNL1        0.0633
     11 N         143.0252  137.8183  158.3667 N.ar    1  UNL1       -0.2287
     12 C         142.0133  138.8943  158.6278 C.ar    1  UNL1        0.1625
     13 S         140.8481  138.6672  157.7109 S.2     1  UNL1       -0.0562
     14 C         141.1398  137.4507  156.8832 C.ar    1  UNL1        0.0238
     15 C         140.2434  136.8622  155.8344 C.3     1  UNL1        0.0395
     16 C         141.4195  143.6035  163.5998 C.3     1  UNL1        0.0853
     17 C         140.4054  144.6646  163.2908 C.3     1  UNL1        0.0096
     18 C         139.2896  144.9392  164.2551 C.3     1  UNL1        0.0005
     19 C         139.1880  144.1528  165.5283 C.3     1  UNL1        0.0005
     20 C         140.2022  143.0916  165.8373 C.3     1  UNL1        0.0096
     21 C         141.3179  142.8170  164.8731 C.3     1  UNL1        0.0851
     22 C         142.3321  141.7559  165.1822 C.2     1  UNL1        0.2231
     23 O         143.7365  142.1423  165.5407 O.2     1  UNL1       -0.2751
     24 N         141.9419  140.3084  165.1327 N.am    1  UNL1       -0.2959
     25 H         141.0202  140.0548  164.8975 H       1  UNL1        0.1502
     26 C         142.9561  139.2472  165.4418 C.3     1  UNL1        0.1364
     27 C         143.7697  138.2607  166.2258 C.3     1  UNL1        0.0353
     28 C         142.7308  139.0933  166.9168 C.3     1  UNL1        0.0353
     29 C         143.5335  139.0326  164.0741 C.1     1  UNL1        0.0896
     30 N         144.1111  138.8180  162.7065 N.1     1  UNL1       -0.1943
@<TRIPOS>BOND
     1     9    10    1
     2    10    11   ar
     3    11    12   ar
     4    12     1    1
     5     1     2    1
     6     2     3    1
     7     3     4    1
     8     4     5   am
     9     5     6    2
    10    16     5    1
    11    16    17    1
    12    17    18    1
    13    18    19    1
    14    19    20    1
    15    20    21    1
    16    21    22    1
    17    22    23    2
    18    22    24   am
    19    24    26    1
    20    26    29    1
    21    29    30    3
    22    26    27    1
    23    27    28    1
    24     4     7    1
    25     7     8    1
    26    12    13   ar
    27    13    14   ar
    28    14    15    1
    29    14    10   ar
    30     8     1    1
    31    21    16    1
    32    28    26    1
    33    24    25    1
@<TRIPOS>MOLECULE
*****
 30 33 0 0 0
SMALL
GASTEIGER

@<TRIPOS>ATOM
      1 N         142.1615  139.1097  159.9083 N.pl3   1  UNL1       -0.2847
      2 C         141.1117  140.1131  160.2837 C.3     1  UNL1        0.1141
      3 C         141.2852  140.9561  161.5122 C.3     1  UNL1        0.1149
      4 N         142.5085  140.7955  162.3654 N.am    1  UNL1       -0.2760
      5 C         142.6819  141.6385  163.5940 C.2     1  UNL1        0.2257
      6 O         143.9052  141.4780  164.4471 O.2     1  UNL1       -0.2749
      7 C         143.5583  139.7921  161.9900 C.3     1  UNL1        0.1149
      8 C         143.3848  138.9491  160.7615 C.3     1  UNL1        0.1141
      9 C         143.0827  135.6826  155.9984 C.3     1  UNL1        0.0524
     10 C         142.4115  136.6914  156.8826 C.ar    1  UNL1        0.0633
     11 N         143.0030  137.3213  158.1087 N.ar    1  UNL1       -0.2287
     12 C         141.9880  138.2666  158.6798 C.ar    1  UNL1        0.1625
     13 S         140.7692  138.2210  157.8067 S.2     1  UNL1       -0.0562
     14 C         141.0309  137.2474  156.6959 C.ar    1  UNL1        0.0238
     15 C         140.0791  136.8923  155.5923 C.3     1  UNL1        0.0395
     16 C         141.6322  142.6420  163.9693 C.3     1  UNL1        0.0853
     17 C         141.7891  144.0782  163.5660 C.3     1  UNL1        0.0096
     18 C         140.7393  145.0817  163.9414 C.3     1  UNL1        0.0005
     19 C         139.5325  144.6490  164.7201 C.3     1  UNL1        0.0005
     20 C         139.3755  143.2128  165.1235 C.3     1  UNL1        0.0096
     21 C         140.4253  142.2093  164.7481 C.3     1  UNL1        0.0851
     22 C         140.2683  140.7731  165.1514 C.2     1  UNL1        0.2231
     23 O         141.1739  140.1829  166.1915 O.2     1  UNL1       -0.2751
     24 N         139.2059  139.9271  164.5147 N.am    1  UNL1       -0.2959
     25 H         138.6115  140.3145  163.8321 H       1  UNL1        0.1502
     26 C         139.0489  138.4909  164.9180 C.3     1  UNL1        0.1364
     27 C         138.5872  137.2825  165.6772 C.3     1  UNL1        0.0353
     28 C         138.1169  138.6478  166.0828 C.3     1  UNL1        0.0353
     29 C         139.9263  137.8352  163.8933 C.1     1  UNL1        0.0896
     30 N         140.8037  137.1794  162.8686 N.1     1  UNL1       -0.1943
@<TRIPOS>BOND
     1     9    10    1
     2    10    11   ar
     3    11    12   ar
     4    12     1    1
     5     1     2    1
     6     2     3    1
     7     3     4    1
     8     4     5   am
     9     5     6    2
    10    16     5    1
    11    16    17    1
    12    17    18    1
    13    18    19    1
    14    19    20    1
    15    20    21    1
    16    21    22    1
    17    22    23    2
    18    22    24   am
    19    24    26    1
    20    26    29    1
    21    29    30    3
    22    26    27    1
    23    27    28    1
    24     4     7    1
    25     7     8    1
    26    12    13   ar
    27    13    14   ar
    28    14    15    1
    29    14    10   ar
    30     8     1    1
    31    21    16    1
    32    28    26    1
    33    24    25    1
@<TRIPOS>MOLECULE
*****
 30 33 0 0 0
SMALL
GASTEIGER

@<TRIPOS>ATOM
      1 N         140.8764  139.6100  159.7529 N.pl3   1  UNL1       -0.2847
      2 C         142.1172  139.9866  160.5068 C.3     1  UNL1        0.1141
      3 C         142.0271  140.9082  161.6869 C.3     1  UNL1        0.1149
      4 N         140.6961  141.4531  162.1130 N.am    1  UNL1       -0.2760
      5 C         140.6060  142.3747  163.2931 C.2     1  UNL1        0.2257
      6 O         139.2750  142.9196  163.7192 O.2     1  UNL1       -0.2749
      7 C         139.4553  141.0765  161.3590 C.3     1  UNL1        0.1149
      8 C         139.5454  140.1550  160.1790 C.3     1  UNL1        0.1141
      9 C         139.5903  136.7529  155.5027 C.3     1  UNL1        0.0524
     10 C         140.3753  137.3752  156.6192 C.ar    1  UNL1        0.0633
     11 N         139.8387  138.3164  157.6565 N.ar    1  UNL1       -0.2287
     12 C         140.9665  138.6884  158.5727 C.ar    1  UNL1        0.1625
     13 S         142.2003  137.9771  158.1017 S.2     1  UNL1       -0.0562
     14 C         141.8349  137.1654  156.8944 C.ar    1  UNL1        0.0238
     15 C         142.7657  136.2966  156.1014 C.3     1  UNL1        0.0395
     16 C         141.8468  142.7513  164.0471 C.3     1  UNL1        0.0853
     17 C         142.7058  143.8810  163.5612 C.3     1  UNL1        0.0096
     18 C         143.9467  144.2576  164.3153 C.3     1  UNL1        0.0005
     19 C         144.3285  143.5045  165.5550 C.3     1  UNL1        0.0005
     20 C         143.4695  142.3749  166.0409 C.3     1  UNL1        0.0096
     21 C         142.2287  141.9983  165.2869 C.3     1  UNL1        0.0851
     22 C         141.3697  140.8686  165.7728 C.2     1  UNL1        0.2231
     23 O         141.8942  139.4634  165.7484 O.2     1  UNL1       -0.2751
     24 N         139.9864  141.1441  166.2830 N.am    1  UNL1       -0.2959
     25 H         139.6422  142.0663  166.2990 H       1  UNL1        0.1502
     26 C         139.1274  140.0144  166.7688 C.3     1  UNL1        0.1364
     27 C         138.1027  138.9190  166.7619 C.3     1  UNL1        0.0353
     28 C         138.3519  139.7206  165.5189 C.3     1  UNL1        0.0353
     29 C         139.6045  139.9159  168.1875 C.1     1  UNL1        0.0896
     30 N         140.0816  139.8174  169.6061 N.1     1  UNL1       -0.1943
@<TRIPOS>BOND
     1     9    10    1
     2    10    11   ar
     3    11    12   ar
     4    12     1    1
     5     1     2    1
     6     2     3    1
     7     3     4    1
     8     4     5   am
     9     5     6    2
    10    16     5    1
    11    16    17    1
    12    17    18    1
    13    18    19    1
    14    19    20    1
    15    20    21    1
    16    21    22    1
    17    22    23    2
    18    22    24   am
    19    24    26    1
    20    26    29    1
    21    29    30    3
    22    26    27    1
    23    27    28    1
    24     4     7    1
    25     7     8    1
    26    12    13   ar
    27    13    14   ar
    28    14    15    1
    29    14    10   ar
    30     8     1    1
    31    21    16    1
    32    28    26    1
    33    24    25    1
@<TRIPOS>MOLECULE
*****
 30 33 0 0 0
SMALL
GASTEIGER

@<TRIPOS>ATOM
      1 N         141.1270  144.9614  159.2493 N.pl3   1  UNL1       -0.2847
      2 C         142.1637  143.8970  159.4544 C.3     1  UNL1        0.1141
      3 C         142.4291  143.3641  160.8312 C.3     1  UNL1        0.1149
      4 N         141.6578  143.8955  162.0028 N.am    1  UNL1       -0.2760
      5 C         141.9232  143.3625  163.3796 C.2     1  UNL1        0.2257
      6 O         141.1518  143.8940  164.5511 O.2     1  UNL1       -0.2749
      7 C         140.6210  144.9599  161.7976 C.3     1  UNL1        0.1149
      8 C         140.3556  145.4929  160.4208 C.3     1  UNL1        0.1141
      9 C         139.0237  147.6625  155.2291 C.3     1  UNL1        0.0524
     10 C         139.8947  146.7360  156.0246 C.ar    1  UNL1        0.0633
     11 N         139.8022  146.4894  157.5013 N.ar    1  UNL1       -0.2287
     12 C         140.8615  145.4944  157.8724 C.ar    1  UNL1        0.1625
     13 S         141.6088  145.1260  156.6251 S.2     1  UNL1       -0.0562
     14 C         141.0113  145.8933  155.4831 C.ar    1  UNL1        0.0238
     15 C         141.4529  145.8293  154.0510 C.3     1  UNL1        0.0395
     16 C         142.9599  142.2981  163.5847 C.3     1  UNL1        0.0853
     17 C         144.4037  142.6763  163.7343 C.3     1  UNL1        0.0096
     18 C         145.4405  141.6118  163.9395 C.3     1  UNL1        0.0005
     19 C         145.0335  140.1692  163.9951 C.3     1  UNL1        0.0005
     20 C         143.5897  139.7910  163.8455 C.3     1  UNL1        0.0096
     21 C         142.5529  140.8554  163.6403 C.3     1  UNL1        0.0851
     22 C         141.1091  140.4772  163.4907 C.2     1  UNL1        0.2231
     23 O         140.2134  140.4462  164.6936 O.2     1  UNL1       -0.2751
     24 N         140.5610  140.1301  162.1384 N.am    1  UNL1       -0.2959
     25 H         141.1488  140.1504  161.3489 H       1  UNL1        0.1502
     26 C         139.1172  139.7519  161.9888 C.3     1  UNL1        0.1364
     27 C         137.8871  138.9004  161.8800 C.3     1  UNL1        0.0353
     28 C         139.2311  138.2576  162.0545 C.3     1  UNL1        0.0353
     29 C         138.5017  141.1147  161.8711 C.1     1  UNL1        0.0896
     30 N         137.8864  142.4776  161.7534 N.1     1  UNL1       -0.1943
@<TRIPOS>BOND
     1     9    10    1
     2    10    11   ar
     3    11    12   ar
     4    12     1    1
     5     1     2    1
     6     2     3    1
     7     3     4    1
     8     4     5   am
     9     5     6    2
    10    16     5    1
    11    16    17    1
    12    17    18    1
    13    18    19    1
    14    19    20    1
    15    20    21    1
    16    21    22    1
    17    22    23    2
    18    22    24   am
    19    24    26    1
    20    26    29    1
    21    29    30    3
    22    26    27    1
    23    27    28    1
    24     4     7    1
    25     7     8    1
    26    12    13   ar
    27    13    14   ar
    28    14    15    1
    29    14    10   ar
    30     8     1    1
    31    21    16    1
    32    28    26    1
    33    24    25    1
