@<TRIPOS>MOLECULE
*****
 34 38 0 0 0
SMALL
GASTEIGER

@<TRIPOS>ATOM
      1 O         144.3553  139.5074  157.2518 O.2     1  UNL1       -0.2697
      2 C         143.0080  138.9138  157.5388 C.2     1  UNL1        0.2540
      3 N         142.4063  139.0457  158.9066 N.am    1  UNL1       -0.2659
      4 C         143.1520  139.7713  159.9872 C.3     1  UNL1        0.1160
      5 C         142.5503  139.9031  161.3548 C.3     1  UNL1        0.1197
      6 N         141.2030  139.3096  161.6419 N.am    1  UNL1       -0.2555
      7 C         140.4573  138.5841  160.5614 C.2     1  UNL1        0.2497
      8 O         139.1100  137.9905  160.8485 O.2     1  UNL1       -0.2727
      9 C         141.0590  138.4522  159.1937 C.3     1  UNL1        0.1799
     10 C         142.2624  138.1883  156.4583 C.ar    1  UNL1        0.1101
     11 C         141.3802  138.8172  155.4208 C.ar    1  UNL1        0.1281
     12 N         140.8406  137.7241  154.5468 N.ar    1  UNL1       -0.1619
     13 N         141.3893  136.4196  155.0441 N.ar    1  UNL1       -0.2105
     14 C         141.2023  135.0076  154.5738 C.ar    1  UNL1        0.1037
     15 C         141.8940  133.8825  155.2849 C.ar    1  UNL1        0.0414
     16 C         142.7727  134.1694  156.4662 C.ar    1  UNL1        0.1022
     17 N         142.9597  135.5814  156.9365 N.ar    1  UNL1       -0.2248
     18 C         142.2680  136.7065  156.2254 C.ar    1  UNL1        0.1697
     19 C         140.6013  139.4415  163.0096 C.ar    1  UNL1        0.0541
     20 C         140.0316  140.7558  163.4549 C.ar    1  UNL1        0.0180
     21 C         139.4299  140.8876  164.8225 C.ar    1  UNL1        0.0382
     22 C         139.3980  139.7053  165.7451 C.ar    1  UNL1        0.1386
     23 C         139.9678  138.3911  165.3000 C.ar    1  UNL1        0.0382
     24 C         140.5694  138.2592  163.9322 C.ar    1  UNL1        0.0180
     25 O         138.7964  139.8373  167.1128 O.3     1  UNL1       -0.4754
     26 C         139.6825  140.0457  168.3050 C.3     1  UNL1        0.2068
     27 C         140.4672  141.3165  168.4431 C.3     1  UNL1        0.0646
     28 C         141.9643  141.2870  168.3537 C.3     1  UNL1        0.0759
     29 N         142.6340  140.5687  167.2199 N.3     1  UNL1       -0.2726
     30 C         142.9749  139.1138  167.3507 C.3     1  UNL1        0.0721
     31 C         143.6446  138.3956  166.2169 C.3     1  UNL1        0.0174
     32 C         143.9734  139.1322  164.9522 C.3     1  UNL1        0.0029
     33 C         143.6325  140.5871  164.8214 C.3     1  UNL1        0.0174
     34 C         142.9628  141.3053  165.9553 C.3     1  UNL1        0.0721
@<TRIPOS>BOND
     1     1     2    2
     2     2    10    1
     3    10    11   ar
     4    11    12   ar
     5    12    13   ar
     6    13    14   ar
     7    14    15   ar
     8    15    16   ar
     9    16    17   ar
    10    17    18   ar
    11     2     3   am
    12     3     4    1
    13     4     5    1
    14     5     6    1
    15     6    19    1
    16    19    20   ar
    17    20    21   ar
    18    21    22   ar
    19    22    25    1
    20    25    26    1
    21    26    27    1
    22    27    28    1
    23    28    29    1
    24    29    30    1
    25    30    31    1
    26    31    32    1
    27    32    33    1
    28    33    34    1
    29    22    23   ar
    30    23    24   ar
    31     6     7   am
    32     7     8    2
    33     7     9    1
    34    18    10   ar
    35     9     3    1
    36    18    13   ar
    37    24    19   ar
    38    34    29    1
@<TRIPOS>MOLECULE
*****
 34 38 0 0 0
SMALL
GASTEIGER

@<TRIPOS>ATOM
      1 O         140.8943  140.1018  157.3863 O.2     1  UNL1       -0.2697
      2 C         139.7110  140.6766  158.1068 C.2     1  UNL1        0.2540
      3 N         139.5852  140.5124  159.5925 N.am    1  UNL1       -0.2659
      4 C         140.6427  139.7734  160.3577 C.3     1  UNL1        0.1160
      5 C         140.5169  139.6092  161.8433 C.3     1  UNL1        0.1197
      6 N         139.3335  140.1841  162.5638 N.am    1  UNL1       -0.2555
      7 C         138.2760  140.9231  161.7987 C.2     1  UNL1        0.2497
      8 O         137.0926  141.4980  162.5193 O.2     1  UNL1       -0.2727
      9 C         138.4018  141.0873  160.3131 C.3     1  UNL1        0.1799
     10 C         138.6534  141.4157  157.3417 C.ar    1  UNL1        0.1101
     11 C         137.2741  140.9129  157.0341 C.ar    1  UNL1        0.1281
     12 N         136.5578  141.9738  156.2521 N.ar    1  UNL1       -0.1619
     13 N         137.4944  143.1322  156.0765 N.ar    1  UNL1       -0.2105
     14 C         137.3352  144.4565  155.3904 C.ar    1  UNL1        0.1037
     15 C         138.4713  145.4359  155.3777 C.ar    1  UNL1        0.0414
     16 C         139.7665  145.0910  156.0511 C.ar    1  UNL1        0.1022
     17 N         139.9256  143.7666  156.7372 N.ar    1  UNL1       -0.2248
     18 C         138.7896  142.7873  156.7499 C.ar    1  UNL1        0.1697
     19 C         139.2077  140.0199  164.0495 C.ar    1  UNL1        0.0541
     20 C         139.6431  141.1248  164.9658 C.ar    1  UNL1        0.0180
     21 C         139.5173  140.9605  166.4514 C.ar    1  UNL1        0.0382
     22 C         138.9561  139.6914  167.0209 C.ar    1  UNL1        0.1386
     23 C         138.5207  138.5864  166.1046 C.ar    1  UNL1        0.0382
     24 C         138.6465  138.7507  164.6189 C.ar    1  UNL1        0.0180
     25 O         138.8303  139.5272  168.5065 O.3     1  UNL1       -0.4754
     26 C         139.7220  140.3083  169.4256 C.3     1  UNL1        0.2068
     27 C         141.1046  139.8123  169.7295 C.3     1  UNL1        0.0646
     28 C         142.2995  140.6037  169.2867 C.3     1  UNL1        0.0759
     29 N         142.6751  140.6461  167.8352 N.3     1  UNL1       -0.2726
     30 C         142.7413  139.3759  167.0401 C.3     1  UNL1        0.0721
     31 C         143.1169  139.4185  165.5885 C.3     1  UNL1        0.0174
     32 C         143.4263  140.7312  164.9320 C.3     1  UNL1        0.0029
     33 C         143.3601  142.0015  165.7271 C.3     1  UNL1        0.0174
     34 C         142.9845  141.9589  167.1787 C.3     1  UNL1        0.0721
@<TRIPOS>BOND
     1     1     2    2
     2     2    10    1
     3    10    11   ar
     4    11    12   ar
     5    12    13   ar
     6    13    14   ar
     7    14    15   ar
     8    15    16   ar
     9    16    17   ar
    10    17    18   ar
    11     2     3   am
    12     3     4    1
    13     4     5    1
    14     5     6    1
    15     6    19    1
    16    19    20   ar
    17    20    21   ar
    18    21    22   ar
    19    22    25    1
    20    25    26    1
    21    26    27    1
    22    27    28    1
    23    28    29    1
    24    29    30    1
    25    30    31    1
    26    31    32    1
    27    32    33    1
    28    33    34    1
    29    22    23   ar
    30    23    24   ar
    31     6     7   am
    32     7     8    2
    33     7     9    1
    34    18    10   ar
    35     9     3    1
    36    18    13   ar
    37    24    19   ar
    38    34    29    1
@<TRIPOS>MOLECULE
*****
 34 38 0 0 0
SMALL
GASTEIGER

@<TRIPOS>ATOM
      1 O         144.9186  137.3541  155.3498 O.2     1  UNL1       -0.2697
      2 C         143.7056  136.9973  156.1567 C.2     1  UNL1        0.2540
      3 N         143.0094  138.0488  156.9691 N.am    1  UNL1       -0.2659
      4 C         143.5263  139.4569  156.9745 C.3     1  UNL1        0.1160
      5 C         142.8301  140.5082  157.7869 C.3     1  UNL1        0.1197
      6 N         141.6171  140.1515  158.5938 N.am    1  UNL1       -0.2555
      7 C         141.1001  138.7434  158.5884 C.2     1  UNL1        0.2497
      8 O         139.8870  138.3867  159.3954 O.2     1  UNL1       -0.2727
      9 C         141.7963  137.6921  157.7761 C.3     1  UNL1        0.1799
     10 C         143.1886  135.5892  156.1513 C.ar    1  UNL1        0.1101
     11 C         143.2437  134.6254  157.2993 C.ar    1  UNL1        0.1281
     12 N         142.6149  133.3383  156.8544 N.ar    1  UNL1       -0.1619
     13 N         142.1712  133.5066  155.4314 N.ar    1  UNL1       -0.2105
     14 C         141.4902  132.5729  154.4753 C.ar    1  UNL1        0.1037
     15 C         141.1637  133.0304  153.0846 C.ar    1  UNL1        0.0414
     16 C         141.5183  134.4216  152.6501 C.ar    1  UNL1        0.1022
     17 N         142.1993  135.3553  153.6062 N.ar    1  UNL1       -0.2248
     18 C         142.5258  134.8978  154.9969 C.ar    1  UNL1        0.1697
     19 C         140.9209  141.2029  159.4062 C.ar    1  UNL1        0.0541
     20 C         141.5573  141.7257  160.6599 C.ar    1  UNL1        0.0180
     21 C         140.8611  142.7771  161.4722 C.ar    1  UNL1        0.0382
     22 C         139.5285  143.3058  161.0309 C.ar    1  UNL1        0.1386
     23 C         138.8921  142.7831  159.7771 C.ar    1  UNL1        0.0382
     24 C         139.5884  141.7316  158.9648 C.ar    1  UNL1        0.0180
     25 O         138.8324  144.3572  161.8432 O.3     1  UNL1       -0.4754
     26 C         137.7471  143.9674  162.8025 C.3     1  UNL1        0.2068
     27 C         137.9035  142.7428  163.6545 C.3     1  UNL1        0.0646
     28 C         137.3775  141.4228  163.1741 C.3     1  UNL1        0.0759
     29 N         137.9565  140.1458  163.7070 N.3     1  UNL1       -0.2726
     30 C         138.3226  139.0376  162.7647 C.3     1  UNL1        0.0721
     31 C         138.9016  137.7606  163.2977 C.3     1  UNL1        0.0174
     32 C         139.1146  137.5918  164.7729 C.3     1  UNL1        0.0029
     33 C         138.7485  138.7000  165.7152 C.3     1  UNL1        0.0174
     34 C         138.1694  139.9770  165.1822 C.3     1  UNL1        0.0721
@<TRIPOS>BOND
     1     1     2    2
     2     2    10    1
     3    10    11   ar
     4    11    12   ar
     5    12    13   ar
     6    13    14   ar
     7    14    15   ar
     8    15    16   ar
     9    16    17   ar
    10    17    18   ar
    11     2     3   am
    12     3     4    1
    13     4     5    1
    14     5     6    1
    15     6    19    1
    16    19    20   ar
    17    20    21   ar
    18    21    22   ar
    19    22    25    1
    20    25    26    1
    21    26    27    1
    22    27    28    1
    23    28    29    1
    24    29    30    1
    25    30    31    1
    26    31    32    1
    27    32    33    1
    28    33    34    1
    29    22    23   ar
    30    23    24   ar
    31     6     7   am
    32     7     8    2
    33     7     9    1
    34    18    10   ar
    35     9     3    1
    36    18    13   ar
    37    24    19   ar
    38    34    29    1
@<TRIPOS>MOLECULE
*****
 34 38 0 0 0
SMALL
GASTEIGER

@<TRIPOS>ATOM
      1 O         144.8158  137.0880  155.5820 O.2     1  UNL1       -0.2697
      2 C         143.4422  136.8086  156.1156 C.2     1  UNL1        0.2540
      3 N         142.7263  137.8487  156.9255 N.am    1  UNL1       -0.2659
      4 C         143.3842  139.1682  157.2016 C.3     1  UNL1        0.1160
      5 C         142.6684  140.2082  158.0115 C.3     1  UNL1        0.1197
      6 N         141.2947  139.9288  158.5452 N.am    1  UNL1       -0.2555
      7 C         140.6367  138.6094  158.2690 C.2     1  UNL1        0.2497
      8 O         139.2630  138.3300  158.8027 O.2     1  UNL1       -0.2727
      9 C         141.3526  137.5694  157.4592 C.3     1  UNL1        0.1799
     10 C         142.7843  135.4891  155.8395 C.ar    1  UNL1        0.1101
     11 C         141.5899  135.2665  154.9598 C.ar    1  UNL1        0.1281
     12 N         141.2728  133.8004  154.9712 N.ar    1  UNL1       -0.1619
     13 N         142.2711  133.1171  155.8581 N.ar    1  UNL1       -0.2105
     14 C         142.4501  131.6793  156.2462 C.ar    1  UNL1        0.1037
     15 C         143.5634  131.2852  157.1710 C.ar    1  UNL1        0.0414
     16 C         144.4976  132.3290  157.7077 C.ar    1  UNL1        0.1022
     17 N         144.3185  133.7667  157.3195 N.ar    1  UNL1       -0.2248
     18 C         143.2053  134.1608  156.3947 C.ar    1  UNL1        0.1697
     19 C         140.5789  140.9689  159.3550 C.ar    1  UNL1        0.0541
     20 C         141.0964  141.3520  160.7098 C.ar    1  UNL1        0.0180
     21 C         140.3806  142.3921  161.5195 C.ar    1  UNL1        0.0382
     22 C         139.1471  143.0491  160.9746 C.ar    1  UNL1        0.1386
     23 C         138.6295  142.6661  159.6198 C.ar    1  UNL1        0.0382
     24 C         139.3454  141.6259  158.8101 C.ar    1  UNL1        0.0180
     25 O         138.4313  144.0892  161.7844 O.3     1  UNL1       -0.4754
     26 C         138.3284  143.9406  163.2735 C.3     1  UNL1        0.2068
     27 C         137.5182  142.8235  163.8614 C.3     1  UNL1        0.0646
     28 C         138.1933  141.7445  164.6551 C.3     1  UNL1        0.0759
     29 N         138.4373  140.3997  164.0371 N.3     1  UNL1       -0.2726
     30 C         137.8238  140.0614  162.7107 C.3     1  UNL1        0.0721
     31 C         138.0678  138.7166  162.0928 C.3     1  UNL1        0.0174
     32 C         138.9252  137.7101  162.8011 C.3     1  UNL1        0.0029
     33 C         139.5387  138.0484  164.1274 C.3     1  UNL1        0.0174
     34 C         139.2947  139.3932  164.7454 C.3     1  UNL1        0.0721
@<TRIPOS>BOND
     1     1     2    2
     2     2    10    1
     3    10    11   ar
     4    11    12   ar
     5    12    13   ar
     6    13    14   ar
     7    14    15   ar
     8    15    16   ar
     9    16    17   ar
    10    17    18   ar
    11     2     3   am
    12     3     4    1
    13     4     5    1
    14     5     6    1
    15     6    19    1
    16    19    20   ar
    17    20    21   ar
    18    21    22   ar
    19    22    25    1
    20    25    26    1
    21    26    27    1
    22    27    28    1
    23    28    29    1
    24    29    30    1
    25    30    31    1
    26    31    32    1
    27    32    33    1
    28    33    34    1
    29    22    23   ar
    30    23    24   ar
    31     6     7   am
    32     7     8    2
    33     7     9    1
    34    18    10   ar
    35     9     3    1
    36    18    13   ar
    37    24    19   ar
    38    34    29    1
@<TRIPOS>MOLECULE
*****
 34 38 0 0 0
SMALL
GASTEIGER

@<TRIPOS>ATOM
      1 O         139.9116  141.1718  157.0546 O.2     1  UNL1       -0.2697
      2 C         140.8448  140.3944  157.9347 C.2     1  UNL1        0.2540
      3 N         140.5606  140.2675  159.4022 N.am    1  UNL1       -0.2659
      4 C         139.3432  140.9182  159.9893 C.3     1  UNL1        0.1160
      5 C         139.0591  140.7913  161.4567 C.3     1  UNL1        0.1197
      6 N         139.9923  140.0139  162.3368 N.am    1  UNL1       -0.2555
      7 C         141.2096  139.3632  161.7497 C.2     1  UNL1        0.2497
      8 O         142.1428  138.5857  162.6299 O.2     1  UNL1       -0.2727
      9 C         141.4937  139.4901  160.2824 C.3     1  UNL1        0.1799
     10 C         142.0621  139.7437  157.3476 C.ar    1  UNL1        0.1101
     11 C         143.4286  140.3548  157.2511 C.ar    1  UNL1        0.1281
     12 N         144.3376  139.3564  156.5977 N.ar    1  UNL1       -0.1619
     13 N         143.5330  138.1284  156.2903 N.ar    1  UNL1       -0.2105
     14 C         143.8992  136.8231  155.6484 C.ar    1  UNL1        0.1037
     15 C         142.8591  135.7573  155.4699 C.ar    1  UNL1        0.0414
     16 C         141.4527  135.9966  155.9333 C.ar    1  UNL1        0.1022
     17 N         141.0865  137.3018  156.5753 N.ar    1  UNL1       -0.2248
     18 C         142.1266  138.3677  156.7538 C.ar    1  UNL1        0.1697
     19 C         139.7081  139.8870  163.8042 C.ar    1  UNL1        0.0541
     20 C         139.2907  138.5645  164.3758 C.ar    1  UNL1        0.0180
     21 C         139.0065  138.4378  165.8432 C.ar    1  UNL1        0.0382
     22 C         139.1397  139.6335  166.7390 C.ar    1  UNL1        0.1386
     23 C         139.5572  140.9561  166.1674 C.ar    1  UNL1        0.0382
     24 C         139.8413  141.0828  164.7000 C.ar    1  UNL1        0.0180
     25 O         138.8556  139.5067  168.2063 O.3     1  UNL1       -0.4754
     26 C         139.5582  140.3990  169.1862 C.3     1  UNL1        0.2068
     27 C         140.6392  139.8433  170.0651 C.3     1  UNL1        0.0646
     28 C         142.0787  140.1317  169.7569 C.3     1  UNL1        0.0759
     29 N         142.5043  140.3983  168.3435 N.3     1  UNL1       -0.2726
     30 C         142.6857  139.2573  167.3869 C.3     1  UNL1        0.0721
     31 C         143.1113  139.5240  165.9736 C.3     1  UNL1        0.0174
     32 C         143.3556  140.9317  165.5167 C.3     1  UNL1        0.0029
     33 C         143.1742  142.0728  166.4733 C.3     1  UNL1        0.0174
     34 C         142.7486  141.8060  167.8867 C.3     1  UNL1        0.0721
@<TRIPOS>BOND
     1     1     2    2
     2     2    10    1
     3    10    11   ar
     4    11    12   ar
     5    12    13   ar
     6    13    14   ar
     7    14    15   ar
     8    15    16   ar
     9    16    17   ar
    10    17    18   ar
    11     2     3   am
    12     3     4    1
    13     4     5    1
    14     5     6    1
    15     6    19    1
    16    19    20   ar
    17    20    21   ar
    18    21    22   ar
    19    22    25    1
    20    25    26    1
    21    26    27    1
    22    27    28    1
    23    28    29    1
    24    29    30    1
    25    30    31    1
    26    31    32    1
    27    32    33    1
    28    33    34    1
    29    22    23   ar
    30    23    24   ar
    31     6     7   am
    32     7     8    2
    33     7     9    1
    34    18    10   ar
    35     9     3    1
    36    18    13   ar
    37    24    19   ar
    38    34    29    1
@<TRIPOS>MOLECULE
*****
 34 38 0 0 0
SMALL
GASTEIGER

@<TRIPOS>ATOM
      1 O         145.0754  137.9691  155.5995 O.2     1  UNL1       -0.2697
      2 C         143.6860  137.5190  155.9412 C.2     1  UNL1        0.2540
      3 N         142.8539  138.3169  156.9010 N.am    1  UNL1       -0.2659
      4 C         143.4114  139.5649  157.5189 C.3     1  UNL1        0.1160
      5 C         142.5793  140.3627  158.4787 C.3     1  UNL1        0.1197
      6 N         141.1898  139.9126  158.8204 N.am    1  UNL1       -0.2555
      7 C         140.6324  138.6646  158.2025 C.2     1  UNL1        0.2497
      8 O         139.2430  138.2145  158.5443 O.2     1  UNL1       -0.2727
      9 C         141.4645  137.8668  157.2428 C.3     1  UNL1        0.1799
     10 C         143.1286  136.2710  155.3233 C.ar    1  UNL1        0.1101
     11 C         142.4351  136.1780  153.9965 C.ar    1  UNL1        0.1281
     12 N         142.0447  134.7464  153.7769 N.ar    1  UNL1       -0.1619
     13 N         142.4970  133.9547  154.9680 N.ar    1  UNL1       -0.2105
     14 C         142.3854  132.4975  155.3057 C.ar    1  UNL1        0.1037
     15 C         142.9437  131.9826  156.5992 C.ar    1  UNL1        0.0414
     16 C         143.6136  132.9248  157.5549 C.ar    1  UNL1        0.1022
     17 N         143.7252  134.3820  157.2172 N.ar    1  UNL1       -0.2248
     18 C         143.1669  134.8969  155.9237 C.ar    1  UNL1        0.1697
     19 C         140.3578  140.7105  159.7802 C.ar    1  UNL1        0.0541
     20 C         139.3686  141.7121  159.2622 C.ar    1  UNL1        0.0180
     21 C         138.5367  142.5100  160.2220 C.ar    1  UNL1        0.0382
     22 C         138.6938  142.3063  161.6998 C.ar    1  UNL1        0.1386
     23 C         139.6830  141.3046  162.2178 C.ar    1  UNL1        0.0382
     24 C         140.5150  140.5068  161.2579 C.ar    1  UNL1        0.0180
     25 O         137.8618  143.1041  162.6595 O.3     1  UNL1       -0.4754
     26 C         138.1695  144.5535  162.8935 C.3     1  UNL1        0.2068
     27 C         139.5135  144.9590  163.4217 C.3     1  UNL1        0.0646
     28 C         140.5454  145.5248  162.4916 C.3     1  UNL1        0.0759
     29 N         141.8166  144.7714  162.2339 N.3     1  UNL1       -0.2726
     30 C         142.9257  144.8043  163.2434 C.3     1  UNL1        0.0721
     31 C         144.1968  144.0509  162.9856 C.3     1  UNL1        0.0174
     32 C         144.3590  143.2647  161.7185 C.3     1  UNL1        0.0029
     33 C         143.2500  143.2319  160.7091 C.3     1  UNL1        0.0174
     34 C         141.9788  143.9853  160.9668 C.3     1  UNL1        0.0721
@<TRIPOS>BOND
     1     1     2    2
     2     2    10    1
     3    10    11   ar
     4    11    12   ar
     5    12    13   ar
     6    13    14   ar
     7    14    15   ar
     8    15    16   ar
     9    16    17   ar
    10    17    18   ar
    11     2     3   am
    12     3     4    1
    13     4     5    1
    14     5     6    1
    15     6    19    1
    16    19    20   ar
    17    20    21   ar
    18    21    22   ar
    19    22    25    1
    20    25    26    1
    21    26    27    1
    22    27    28    1
    23    28    29    1
    24    29    30    1
    25    30    31    1
    26    31    32    1
    27    32    33    1
    28    33    34    1
    29    22    23   ar
    30    23    24   ar
    31     6     7   am
    32     7     8    2
    33     7     9    1
    34    18    10   ar
    35     9     3    1
    36    18    13   ar
    37    24    19   ar
    38    34    29    1
@<TRIPOS>MOLECULE
*****
 34 38 0 0 0
SMALL
GASTEIGER

@<TRIPOS>ATOM
      1 O         143.9898  139.0423  155.5481 O.2     1  UNL1       -0.2697
      2 C         143.0331  138.3195  156.4492 C.2     1  UNL1        0.2540
      3 N         142.9022  138.7283  157.8866 N.am    1  UNL1       -0.2659
      4 C         143.7281  139.8600  158.4226 C.3     1  UNL1        0.1160
      5 C         143.5972  140.2687  159.8599 C.3     1  UNL1        0.1197
      6 N         142.6404  139.5459  160.7611 N.am    1  UNL1       -0.2555
      7 C         141.8146  138.4142  160.2250 C.2     1  UNL1        0.2497
      8 O         140.8579  137.6914  161.1262 O.2     1  UNL1       -0.2727
      9 C         141.9455  138.0055  158.7878 C.3     1  UNL1        0.1799
     10 C         142.2073  137.1878  155.9132 C.ar    1  UNL1        0.1101
     11 C         140.9548  137.3192  155.0982 C.ar    1  UNL1        0.1281
     12 N         140.4624  135.9387  154.7794 N.ar    1  UNL1       -0.1619
     13 N         141.4105  134.9541  155.3972 N.ar    1  UNL1       -0.2105
     14 C         141.4312  133.4544  155.4123 C.ar    1  UNL1        0.1037
     15 C         142.5303  132.7266  156.1281 C.ar    1  UNL1        0.0414
     16 C         143.6087  133.4987  156.8288 C.ar    1  UNL1        0.1022
     17 N         143.5880  134.9984  156.8137 N.ar    1  UNL1       -0.2248
     18 C         142.4889  135.7261  156.0980 C.ar    1  UNL1        0.1697
     19 C         142.5096  139.9547  162.1983 C.ar    1  UNL1        0.0541
     20 C         141.6995  141.1631  162.5637 C.ar    1  UNL1        0.0180
     21 C         141.5687  141.5719  164.0009 C.ar    1  UNL1        0.0382
     22 C         142.2479  140.7722  165.0729 C.ar    1  UNL1        0.1386
     23 C         143.0580  139.5638  164.7077 C.ar    1  UNL1        0.0382
     24 C         143.1888  139.1550  163.2703 C.ar    1  UNL1        0.0180
     25 O         142.1170  141.1810  166.5102 O.3     1  UNL1       -0.4754
     26 C         141.2564  140.3806  167.4422 C.3     1  UNL1        0.2068
     27 C         139.7625  140.4409  167.3215 C.3     1  UNL1        0.0646
     28 C         139.0450  139.4918  166.4079 C.3     1  UNL1        0.0759
     29 N         138.5842  139.9545  165.0576 N.3     1  UNL1       -0.2726
     30 C         138.0770  141.3546  164.8773 C.3     1  UNL1        0.0721
     31 C         137.6162  141.8172  163.5269 C.3     1  UNL1        0.0174
     32 C         137.6625  140.8798  162.3568 C.3     1  UNL1        0.0029
     33 C         138.1697  139.4797  162.5371 C.3     1  UNL1        0.0174
     34 C         138.6305  139.0171  163.8875 C.3     1  UNL1        0.0721
@<TRIPOS>BOND
     1     1     2    2
     2     2    10    1
     3    10    11   ar
     4    11    12   ar
     5    12    13   ar
     6    13    14   ar
     7    14    15   ar
     8    15    16   ar
     9    16    17   ar
    10    17    18   ar
    11     2     3   am
    12     3     4    1
    13     4     5    1
    14     5     6    1
    15     6    19    1
    16    19    20   ar
    17    20    21   ar
    18    21    22   ar
    19    22    25    1
    20    25    26    1
    21    26    27    1
    22    27    28    1
    23    28    29    1
    24    29    30    1
    25    30    31    1
    26    31    32    1
    27    32    33    1
    28    33    34    1
    29    22    23   ar
    30    23    24   ar
    31     6     7   am
    32     7     8    2
    33     7     9    1
    34    18    10   ar
    35     9     3    1
    36    18    13   ar
    37    24    19   ar
    38    34    29    1
@<TRIPOS>MOLECULE
*****
 34 38 0 0 0
SMALL
GASTEIGER

@<TRIPOS>ATOM
      1 O         144.0346  134.9553  156.4647 O.2     1  UNL1       -0.2697
      2 C         142.7421  135.5255  155.9606 C.2     1  UNL1        0.2540
      3 N         142.0246  136.5755  156.7563 N.am    1  UNL1       -0.2659
      4 C         142.5998  137.0551  158.0560 C.3     1  UNL1        0.1160
      5 C         141.8823  138.1049  158.8515 C.3     1  UNL1        0.1197
      6 N         140.5898  138.6752  158.3475 N.am    1  UNL1       -0.2555
      7 C         140.0146  138.1956  157.0478 C.2     1  UNL1        0.2497
      8 O         138.7221  138.7659  156.5438 O.2     1  UNL1       -0.2727
      9 C         140.7321  137.1457  156.2522 C.3     1  UNL1        0.1799
     10 C         142.1669  135.0459  154.6609 C.ar    1  UNL1        0.1101
     11 C         142.1111  135.8253  153.3805 C.ar    1  UNL1        0.1281
     12 N         141.4563  134.9638  152.3417 N.ar    1  UNL1       -0.1619
     13 N         141.1075  133.6520  152.9801 N.ar    1  UNL1       -0.2105
     14 C         140.4466  132.4179  152.4415 C.ar    1  UNL1        0.1037
     15 C         140.2250  131.2345  153.3362 C.ar    1  UNL1        0.0414
     16 C         140.6642  131.2853  154.7695 C.ar    1  UNL1        0.1022
     17 N         141.3251  132.5194  155.3082 N.ar    1  UNL1       -0.2248
     18 C         141.5467  133.7028  154.4135 C.ar    1  UNL1        0.1697
     19 C         139.8724  139.7251  159.1431 C.ar    1  UNL1        0.0541
     20 C         140.4373  141.1115  159.2373 C.ar    1  UNL1        0.0180
     21 C         139.7199  142.1613  160.0330 C.ar    1  UNL1        0.0382
     22 C         138.4374  141.8248  160.7345 C.ar    1  UNL1        0.1386
     23 C         137.8724  140.4384  160.6404 C.ar    1  UNL1        0.0382
     24 C         138.5900  139.3886  159.8447 C.ar    1  UNL1        0.0180
     25 O         137.7200  142.8747  161.5302 O.3     1  UNL1       -0.4754
     26 C         137.5505  142.7080  163.0112 C.3     1  UNL1        0.2068
     27 C         138.7114  142.9472  163.9305 C.3     1  UNL1        0.0646
     28 C         139.2998  141.8072  164.7079 C.3     1  UNL1        0.0759
     29 N         139.5824  140.5013  164.0263 N.3     1  UNL1       -0.2726
     30 C         140.8384  140.3301  163.2244 C.3     1  UNL1        0.0721
     31 C         141.1209  139.0241  162.5428 C.3     1  UNL1        0.0174
     32 C         140.1474  137.8893  162.6631 C.3     1  UNL1        0.0029
     33 C         138.8913  138.0605  163.4650 C.3     1  UNL1        0.0174
     34 C         138.6089  139.3665  164.1466 C.3     1  UNL1        0.0721
@<TRIPOS>BOND
     1     1     2    2
     2     2    10    1
     3    10    11   ar
     4    11    12   ar
     5    12    13   ar
     6    13    14   ar
     7    14    15   ar
     8    15    16   ar
     9    16    17   ar
    10    17    18   ar
    11     2     3   am
    12     3     4    1
    13     4     5    1
    14     5     6    1
    15     6    19    1
    16    19    20   ar
    17    20    21   ar
    18    21    22   ar
    19    22    25    1
    20    25    26    1
    21    26    27    1
    22    27    28    1
    23    28    29    1
    24    29    30    1
    25    30    31    1
    26    31    32    1
    27    32    33    1
    28    33    34    1
    29    22    23   ar
    30    23    24   ar
    31     6     7   am
    32     7     8    2
    33     7     9    1
    34    18    10   ar
    35     9     3    1
    36    18    13   ar
    37    24    19   ar
    38    34    29    1
@<TRIPOS>MOLECULE
*****
 34 38 0 0 0
SMALL
GASTEIGER

@<TRIPOS>ATOM
      1 O         144.3149  139.8151  163.6616 O.2     1  UNL1       -0.2697
      2 C         143.7798  140.5996  162.5006 C.2     1  UNL1        0.2540
      3 N         143.3717  139.8926  161.2421 N.am    1  UNL1       -0.2659
      4 C         143.4988  138.4011  161.1447 C.3     1  UNL1        0.1160
      5 C         143.0908  137.6942  159.8863 C.3     1  UNL1        0.1197
      6 N         142.5556  138.4787  158.7252 N.am    1  UNL1       -0.2555
      7 C         142.4285  139.9701  158.8225 C.2     1  UNL1        0.2497
      8 O         141.8934  140.7546  157.6614 O.2     1  UNL1       -0.2727
      9 C         142.8366  140.6770  160.0809 C.3     1  UNL1        0.1799
     10 C         143.6526  142.0910  162.5979 C.ar    1  UNL1        0.1101
     11 C         144.6876  143.0932  162.1804 C.ar    1  UNL1        0.1281
     12 N         144.1428  144.4636  162.4543 N.ar    1  UNL1       -0.1619
     13 N         142.7711  144.3084  163.0411 N.ar    1  UNL1       -0.2105
     14 C         141.7588  145.3129  163.5060 C.ar    1  UNL1        0.1037
     15 C         140.4435  144.8510  164.0598 C.ar    1  UNL1        0.0414
     16 C         140.1406  143.3845  164.1485 C.ar    1  UNL1        0.1022
     17 N         141.1529  142.3801  163.6836 N.ar    1  UNL1       -0.2248
     18 C         142.4682  142.8420  163.1298 C.ar    1  UNL1        0.1697
     19 C         142.1476  137.7717  157.4667 C.ar    1  UNL1        0.0541
     20 C         140.6942  137.5531  157.1667 C.ar    1  UNL1        0.0180
     21 C         140.2863  136.8461  155.9083 C.ar    1  UNL1        0.0382
     22 C         141.3317  136.3577  154.9498 C.ar    1  UNL1        0.1386
     23 C         142.7850  136.5763  155.2497 C.ar    1  UNL1        0.0382
     24 C         143.1930  137.2834  156.5082 C.ar    1  UNL1        0.0180
     25 O         140.9236  135.6508  153.6913 O.3     1  UNL1       -0.4754
     26 C         141.7867  134.5595  153.1306 C.3     1  UNL1        0.2068
     27 C         141.4996  133.1271  153.4704 C.3     1  UNL1        0.0646
     28 C         141.4347  132.6951  154.9054 C.3     1  UNL1        0.0759
     29 N         142.6994  132.5026  155.6887 N.3     1  UNL1       -0.2726
     30 C         143.6715  131.4312  155.2922 C.3     1  UNL1        0.0721
     31 C         144.9361  131.2388  156.0755 C.3     1  UNL1        0.0174
     32 C         145.2286  132.1177  157.2553 C.3     1  UNL1        0.0029
     33 C         144.2565  133.1890  157.6519 C.3     1  UNL1        0.0174
     34 C         142.9919  133.3815  156.8685 C.3     1  UNL1        0.0721
@<TRIPOS>BOND
     1     1     2    2
     2     2    10    1
     3    10    11   ar
     4    11    12   ar
     5    12    13   ar
     6    13    14   ar
     7    14    15   ar
     8    15    16   ar
     9    16    17   ar
    10    17    18   ar
    11     2     3   am
    12     3     4    1
    13     4     5    1
    14     5     6    1
    15     6    19    1
    16    19    20   ar
    17    20    21   ar
    18    21    22   ar
    19    22    25    1
    20    25    26    1
    21    26    27    1
    22    27    28    1
    23    28    29    1
    24    29    30    1
    25    30    31    1
    26    31    32    1
    27    32    33    1
    28    33    34    1
    29    22    23   ar
    30    23    24   ar
    31     6     7   am
    32     7     8    2
    33     7     9    1
    34    18    10   ar
    35     9     3    1
    36    18    13   ar
    37    24    19   ar
    38    34    29    1
