@<TRIPOS>MOLECULE
*****
 48 53 0 0 0
SMALL
GASTEIGER

@<TRIPOS>ATOM
      1 C         142.9135  141.1901  157.9989 C.2     1  UNL1        0.2459
      2 O         144.1920  141.7336  158.5645 O.2     1  UNL1       -0.2701
      3 N         141.7405  142.1005  157.7864 N.am    1  UNL1       -0.2975
      4 H         140.9014  141.7437  157.4151 H       1  UNL1        0.1499
      5 C         142.5972  136.8280  156.9393 C.ar    1  UNL1        0.0536
      6 C         142.6293  137.8630  155.8541 C.ar    1  UNL1        0.0048
      7 C         142.7348  139.3170  156.2073 C.ar    1  UNL1        0.0047
      8 C         142.8081  139.7361  157.6457 C.ar    1  UNL1        0.0534
      9 C         142.7759  138.7011  158.7310 C.ar    1  UNL1        0.0047
     10 C         142.6705  137.2470  158.3777 C.ar    1  UNL1        0.0048
     11 C         143.3534  131.5649  156.6902 C.ar    1  UNL1        0.0143
     12 C         142.7045  130.4619  155.9078 C.ar    1  UNL1        0.0091
     13 C         141.5894  130.7742  154.9546 C.ar    1  UNL1        0.0698
     14 C         141.1230  132.1897  154.7837 C.ar    1  UNL1        0.0326
     15 C         141.7719  133.2927  155.5662 C.ar    1  UNL1        0.1192
     16 N         141.5275  134.7721  155.6074 N.ar    1  UNL1       -0.2082
     17 C         142.4917  135.3740  156.5862 C.ar    1  UNL1        0.2296
     18 O         143.3320  134.2666  157.1499 O.2     1  UNL1       -0.4349
     19 C         142.8871  132.9803  156.5194 C.ar    1  UNL1        0.1607
     20 C         145.4582  132.3169  158.0148 C.3     1  UNL1        0.0048
     21 C         144.4686  131.2525  157.6435 C.3     1  UNL1        0.0254
     22 C         144.5943  129.8756  158.2255 C.3     1  UNL1        0.0048
     23 C         140.9404  129.6712  154.1721 C.1     1  UNL1        0.1005
     24 N         140.2915  128.5681  153.3896 N.1     1  UNL1       -0.1908
     25 C         141.8459  143.5545  158.1395 C.3     1  UNL1        0.1355
     26 C         141.4132  144.0305  159.4946 C.3     1  UNL1        0.2101
     27 C         141.4584  143.2339  160.7648 C.3     1  UNL1        0.1483
     28 N         140.9325  144.0977  161.8725 N.am    1  UNL1       -0.2059
     29 C         140.5623  145.4282  161.2870 C.2     1  UNL1        0.4098
     30 O         139.9946  146.5953  162.0392 O.2     1  UNL1       -0.2258
     31 O         140.8595  145.3866  159.8173 O.3     1  UNL1       -0.4345
     32 C         140.8000  143.7007  163.3130 C.ar    1  UNL1        0.1400
     33 C         141.9926  143.1828  164.0610 C.ar    1  UNL1        0.0348
     34 C         141.8601  142.7858  165.5014 C.ar    1  UNL1        0.0045
     35 C         140.5351  142.9069  166.1939 C.ar    1  UNL1        0.0222
     36 C         139.3425  143.4248  165.4459 C.ar    1  UNL1        0.1004
     37 N         139.4750  143.8218  164.0055 N.ar    1  UNL1       -0.2287
     38 C         140.4026  142.5099  167.6343 C.ar    1  UNL1        0.0358
     39 C         140.4006  143.5607  168.7047 C.ar    1  UNL1        0.0031
     40 C         140.2682  143.1638  170.1452 C.ar    1  UNL1        0.0002
     41 C         140.1377  141.7160  170.5152 C.ar    1  UNL1        0.0031
     42 C         140.1396  140.6652  169.4448 C.ar    1  UNL1        0.0372
     43 C         140.2721  141.0622  168.0044 C.ar    1  UNL1        0.1468
     44 O         140.2741  140.0114  166.9340 O.3     1  UNL1       -0.4045
     45 C         139.0084  139.6907  166.1954 C.3     1  UNL1        0.5753
     46 F         137.7429  139.3701  165.4568 F       1  UNL1       -0.1328
     47 F         138.3557  139.2938  167.4862 F       1  UNL1       -0.1328
     48 F         139.6613  140.0876  164.9045 F       1  UNL1       -0.1328
@<TRIPOS>BOND
     1    20    21    1
     2    21    22    1
     3    21    11    1
     4    11    12   ar
     5    12    13   ar
     6    13    23    1
     7    23    24    3
     8    13    14   ar
     9    14    15   ar
    10    15    16   ar
    11    16    17   ar
    12    17     5    1
    13     5     6   ar
    14     6     7   ar
    15     7     8   ar
    16     8     1    1
    17     1     2    2
    18     1     3   am
    19     3    25    1
    20    26    25    1
    21    26    27    1
    22    27    28    1
    23    28    32    1
    24    32    33   ar
    25    33    34   ar
    26    34    35   ar
    27    35    38    1
    28    38    39   ar
    29    39    40   ar
    30    40    41   ar
    31    41    42   ar
    32    42    43   ar
    33    43    44    1
    34    44    45    1
    35    45    46    1
    36    45    47    1
    37    45    48    1
    38    35    36   ar
    39    36    37   ar
    40    28    29   am
    41    29    30    2
    42    29    31    1
    43     8     9   ar
    44     9    10   ar
    45    17    18   ar
    46    18    19   ar
    47    19    11   ar
    48    19    15   ar
    49    10     5   ar
    50    31    26    1
    51    37    32   ar
    52    43    38   ar
    53     3     4    1
@<TRIPOS>MOLECULE
*****
 48 53 0 0 0
SMALL
GASTEIGER

@<TRIPOS>ATOM
      1 C         142.7826  140.6822  157.7176 C.2     1  UNL1        0.2459
      2 O         144.0415  141.4934  157.8006 O.2     1  UNL1       -0.2701
      3 N         141.4475  141.3542  157.8444 N.am    1  UNL1       -0.2975
      4 H         140.6213  140.8217  157.7899 H       1  UNL1        0.1499
      5 C         143.0109  136.2322  157.0885 C.ar    1  UNL1        0.0536
      6 C         142.6258  136.7811  158.4302 C.ar    1  UNL1        0.0048
      7 C         142.5497  138.2645  158.6399 C.ar    1  UNL1        0.0047
      8 C         142.8587  139.1989  157.5079 C.ar    1  UNL1        0.0534
      9 C         143.2437  138.6499  156.1661 C.ar    1  UNL1        0.0047
     10 C         143.3198  137.1665  155.9565 C.ar    1  UNL1        0.0048
     11 C         142.1018  131.2544  155.4362 C.ar    1  UNL1        0.0143
     12 C         142.7519  129.9335  155.7236 C.ar    1  UNL1        0.0091
     13 C         143.9200  129.8608  156.6616 C.ar    1  UNL1        0.0698
     14 C         144.4383  131.1091  157.3124 C.ar    1  UNL1        0.0326
     15 C         143.7882  132.4300  157.0250 C.ar    1  UNL1        0.1192
     16 N         144.0769  133.8182  157.5144 N.ar    1  UNL1       -0.2082
     17 C         143.0870  134.7489  156.8787 C.ar    1  UNL1        0.2296
     18 O         142.1866  133.9358  155.9965 O.2     1  UNL1       -0.4349
     19 C         142.6200  132.5027  156.0869 C.ar    1  UNL1        0.1607
     20 C         140.9922  132.2212  153.2952 C.3     1  UNL1        0.0048
     21 C         140.9336  131.3271  154.4981 C.3     1  UNL1        0.0254
     22 C         139.7067  130.5057  154.7631 C.3     1  UNL1        0.0048
     23 C         144.5701  128.5398  156.9490 C.1     1  UNL1        0.1005
     24 N         145.2201  127.2189  157.2365 N.1     1  UNL1       -0.1908
     25 C         141.3714  142.8375  158.0541 C.3     1  UNL1        0.1355
     26 C         140.9456  143.3861  159.3837 C.3     1  UNL1        0.2101
     27 C         141.1011  142.7030  160.7100 C.3     1  UNL1        0.1483
     28 N         140.5412  143.6088  161.7664 N.am    1  UNL1       -0.2059
     29 C         140.0396  144.8518  161.0929 C.2     1  UNL1        0.4098
     30 O         139.4004  146.0262  161.7727 O.2     1  UNL1       -0.2258
     31 O         140.2897  144.7141  159.6203 O.3     1  UNL1       -0.4345
     32 C         140.4915  143.3220  163.2379 C.ar    1  UNL1        0.1400
     33 C         141.7511  142.9845  163.9791 C.ar    1  UNL1        0.0348
     34 C         141.7014  142.6977  165.4507 C.ar    1  UNL1        0.0045
     35 C         140.3922  142.7484  166.1809 C.ar    1  UNL1        0.0222
     36 C         139.1326  143.0860  165.4395 C.ar    1  UNL1        0.1004
     37 N         139.1823  143.3727  163.9681 N.ar    1  UNL1       -0.2287
     38 C         140.3425  142.4617  167.6523 C.ar    1  UNL1        0.0358
     39 C         140.3592  143.5924  168.6378 C.ar    1  UNL1        0.0031
     40 C         140.3095  143.3056  170.1093 C.ar    1  UNL1        0.0002
     41 C         140.2432  141.8881  170.5953 C.ar    1  UNL1        0.0031
     42 C         140.2265  140.7574  169.6099 C.ar    1  UNL1        0.0372
     43 C         140.2762  141.0442  168.1384 C.ar    1  UNL1        0.1468
     44 O         140.2595  139.9135  167.1529 O.3     1  UNL1       -0.4045
     45 C         138.9699  139.4993  166.5083 C.3     1  UNL1        0.5753
     46 F         137.6804  139.0852  165.8636 F       1  UNL1       -0.1328
     47 F         138.3768  139.2402  167.8613 F       1  UNL1       -0.1328
     48 F         139.5631  139.7584  165.1551 F       1  UNL1       -0.1328
@<TRIPOS>BOND
     1    20    21    1
     2    21    22    1
     3    21    11    1
     4    11    12   ar
     5    12    13   ar
     6    13    23    1
     7    23    24    3
     8    13    14   ar
     9    14    15   ar
    10    15    16   ar
    11    16    17   ar
    12    17     5    1
    13     5     6   ar
    14     6     7   ar
    15     7     8   ar
    16     8     1    1
    17     1     2    2
    18     1     3   am
    19     3    25    1
    20    26    25    1
    21    26    27    1
    22    27    28    1
    23    28    32    1
    24    32    33   ar
    25    33    34   ar
    26    34    35   ar
    27    35    38    1
    28    38    39   ar
    29    39    40   ar
    30    40    41   ar
    31    41    42   ar
    32    42    43   ar
    33    43    44    1
    34    44    45    1
    35    45    46    1
    36    45    47    1
    37    45    48    1
    38    35    36   ar
    39    36    37   ar
    40    28    29   am
    41    29    30    2
    42    29    31    1
    43     8     9   ar
    44     9    10   ar
    45    17    18   ar
    46    18    19   ar
    47    19    11   ar
    48    19    15   ar
    49    10     5   ar
    50    31    26    1
    51    37    32   ar
    52    43    38   ar
    53     3     4    1
@<TRIPOS>MOLECULE
*****
 48 53 0 0 0
SMALL
GASTEIGER

@<TRIPOS>ATOM
      1 C         143.2823  139.3740  156.7658 C.2     1  UNL1        0.2459
      2 O         142.8794  140.4083  155.7570 O.2     1  UNL1       -0.2701
      3 N         143.9721  139.7893  158.0314 N.am    1  UNL1       -0.2975
      4 H         144.2365  139.1103  158.6935 H       1  UNL1        0.1499
      5 C         142.4217  135.0247  155.9951 C.ar    1  UNL1        0.0536
      6 C         142.4893  135.9904  154.8493 C.ar    1  UNL1        0.0048
      7 C         142.7761  137.4401  155.1062 C.ar    1  UNL1        0.0047
      8 C         142.9955  137.9242  156.5089 C.ar    1  UNL1        0.0534
      9 C         142.9279  136.9586  157.6547 C.ar    1  UNL1        0.0047
     10 C         142.6410  135.5088  157.3978 C.ar    1  UNL1        0.0048
     11 C         142.6852  129.7096  155.8746 C.ar    1  UNL1        0.0143
     12 C         141.8167  128.6436  155.2751 C.ar    1  UNL1        0.0091
     13 C         140.5766  129.0225  154.5212 C.ar    1  UNL1        0.0698
     14 C         140.2049  130.4676  154.3666 C.ar    1  UNL1        0.0326
     15 C         141.0734  131.5336  154.9660 C.ar    1  UNL1        0.1192
     16 N         140.9630  133.0295  154.9773 N.ar    1  UNL1       -0.2082
     17 C         142.1349  133.5750  155.7382 C.ar    1  UNL1        0.2296
     18 O         142.9696  132.4163  156.1973 O.2     1  UNL1       -0.4349
     19 C         142.3135  131.1546  155.7200 C.ar    1  UNL1        0.1607
     20 C         145.0293  128.5908  155.9330 C.3     1  UNL1        0.0048
     21 C         143.9253  129.3306  156.6286 C.3     1  UNL1        0.0254
     22 C         144.0614  129.6915  158.0782 C.3     1  UNL1        0.0048
     23 C         139.7081  127.9565  153.9217 C.1     1  UNL1        0.1005
     24 N         138.8396  126.8904  153.3223 N.1     1  UNL1       -0.1908
     25 C         144.2589  141.2390  158.2883 C.3     1  UNL1        0.1355
     26 C         144.0815  141.8061  159.6656 C.3     1  UNL1        0.2101
     27 C         143.4345  141.1129  160.8278 C.3     1  UNL1        0.1483
     28 N         143.4731  142.0443  162.0029 N.am    1  UNL1       -0.2059
     29 C         144.1441  143.3131  161.5670 C.2     1  UNL1        0.4098
     30 O         144.3949  144.5176  162.4250 O.2     1  UNL1       -0.2258
     31 O         144.5201  143.1658  160.1224 O.3     1  UNL1       -0.4345
     32 C         142.9352  141.7573  163.3735 C.ar    1  UNL1        0.1400
     33 C         143.5343  140.6577  164.1992 C.ar    1  UNL1        0.0348
     34 C         142.9964  140.3707  165.5697 C.ar    1  UNL1        0.0045
     35 C         141.8594  141.1834  166.1146 C.ar    1  UNL1        0.0222
     36 C         141.2604  142.2830  165.2887 C.ar    1  UNL1        0.1004
     37 N         141.7982  142.5700  163.9183 N.ar    1  UNL1       -0.2287
     38 C         141.3216  140.8964  167.4850 C.ar    1  UNL1        0.0358
     39 C         142.1682  141.1635  168.6941 C.ar    1  UNL1        0.0031
     40 C         141.6303  140.8765  170.0646 C.ar    1  UNL1        0.0002
     41 C         140.2458  140.3224  170.2261 C.ar    1  UNL1        0.0031
     42 C         139.3992  140.0553  169.0170 C.ar    1  UNL1        0.0372
     43 C         139.9371  140.3423  167.6465 C.ar    1  UNL1        0.1468
     44 O         139.0904  140.0752  166.4374 O.3     1  UNL1       -0.4045
     45 C         138.6938  138.6696  166.0951 C.3     1  UNL1        0.5753
     46 F         138.2971  137.2641  165.7529 F       1  UNL1       -0.1328
     47 F         140.0322  138.4477  165.4555 F       1  UNL1       -0.1328
     48 F         137.3553  138.8916  166.7349 F       1  UNL1       -0.1328
@<TRIPOS>BOND
     1    20    21    1
     2    21    22    1
     3    21    11    1
     4    11    12   ar
     5    12    13   ar
     6    13    23    1
     7    23    24    3
     8    13    14   ar
     9    14    15   ar
    10    15    16   ar
    11    16    17   ar
    12    17     5    1
    13     5     6   ar
    14     6     7   ar
    15     7     8   ar
    16     8     1    1
    17     1     2    2
    18     1     3   am
    19     3    25    1
    20    26    25    1
    21    26    27    1
    22    27    28    1
    23    28    32    1
    24    32    33   ar
    25    33    34   ar
    26    34    35   ar
    27    35    38    1
    28    38    39   ar
    29    39    40   ar
    30    40    41   ar
    31    41    42   ar
    32    42    43   ar
    33    43    44    1
    34    44    45    1
    35    45    46    1
    36    45    47    1
    37    45    48    1
    38    35    36   ar
    39    36    37   ar
    40    28    29   am
    41    29    30    2
    42    29    31    1
    43     8     9   ar
    44     9    10   ar
    45    17    18   ar
    46    18    19   ar
    47    19    11   ar
    48    19    15   ar
    49    10     5   ar
    50    31    26    1
    51    37    32   ar
    52    43    38   ar
    53     3     4    1
@<TRIPOS>MOLECULE
*****
 48 53 0 0 0
SMALL
GASTEIGER

@<TRIPOS>ATOM
      1 C         143.3363  143.0338  160.1485 C.2     1  UNL1        0.2459
      2 O         142.7004  144.0743  159.2750 O.2     1  UNL1       -0.2701
      3 N         144.5574  142.3020  159.6759 N.am    1  UNL1       -0.2975
      4 H         144.9747  141.6192  160.2493 H       1  UNL1        0.1499
      5 C         141.5806  142.1079  164.1872 C.ar    1  UNL1        0.0536
      6 C         141.5880  141.0596  163.1144 C.ar    1  UNL1        0.0048
      7 C         142.1732  141.3683  161.7681 C.ar    1  UNL1        0.0047
      8 C         142.7511  142.7252  161.4947 C.ar    1  UNL1        0.0534
      9 C         142.7437  143.7736  162.5675 C.ar    1  UNL1        0.0047
     10 C         142.1584  143.4649  163.9138 C.ar    1  UNL1        0.0048
     11 C         140.3455  142.2080  169.3639 C.ar    1  UNL1        0.0143
     12 C         139.4599  141.3653  170.2332 C.ar    1  UNL1        0.0091
     13 C         138.7024  140.2146  169.6401 C.ar    1  UNL1        0.0698
     14 C         138.8304  139.9064  168.1776 C.ar    1  UNL1        0.0326
     15 C         139.7160  140.7491  167.3084 C.ar    1  UNL1        0.1192
     16 N         140.0385  140.6869  165.8448 N.ar    1  UNL1       -0.2082
     17 C         140.9953  141.7993  165.5334 C.ar    1  UNL1        0.2296
     18 O         141.2642  142.5489  166.8045 O.2     1  UNL1       -0.4349
     19 C         140.4736  141.8998  167.9015 C.ar    1  UNL1        0.1607
     20 C         140.4105  144.6669  170.2004 C.3     1  UNL1        0.0048
     21 C         141.1031  143.3587  169.9571 C.3     1  UNL1        0.0254
     22 C         142.5533  143.2014  170.3069 C.3     1  UNL1        0.0048
     23 C         137.8167  139.3719  170.5094 C.1     1  UNL1        0.1005
     24 N         136.9311  138.5293  171.3787 N.1     1  UNL1       -0.1908
     25 C         145.1426  142.6107  158.3297 C.3     1  UNL1        0.1355
     26 C         144.8890  141.6903  157.1728 C.3     1  UNL1        0.2101
     27 C         144.2772  140.3230  157.2516 C.3     1  UNL1        0.1483
     28 N         144.2128  139.7632  155.8615 N.am    1  UNL1       -0.2059
     29 C         144.7848  140.7846  154.9235 C.2     1  UNL1        0.4098
     30 O         144.9158  140.6402  153.4362 O.2     1  UNL1       -0.2258
     31 O         145.2027  141.9755  155.7340 O.3     1  UNL1       -0.4345
     32 C         143.6714  138.4182  155.4768 C.ar    1  UNL1        0.1400
     33 C         144.5893  137.2345  155.3992 C.ar    1  UNL1        0.0348
     34 C         144.0479  135.8895  155.0145 C.ar    1  UNL1        0.0045
     35 C         142.5886  135.7283  154.7074 C.ar    1  UNL1        0.0222
     36 C         141.6707  136.9121  154.7850 C.ar    1  UNL1        0.1004
     37 N         142.2120  138.2570  155.1697 N.ar    1  UNL1       -0.2287
     38 C         142.0472  134.3834  154.3227 C.ar    1  UNL1        0.0358
     39 C         141.6734  134.1052  152.8969 C.ar    1  UNL1        0.0031
     40 C         141.1320  132.7603  152.5122 C.ar    1  UNL1        0.0002
     41 C         140.9645  131.6934  153.5533 C.ar    1  UNL1        0.0031
     42 C         141.3384  131.9716  154.9791 C.ar    1  UNL1        0.0372
     43 C         141.8797  133.3166  155.3638 C.ar    1  UNL1        0.1468
     44 O         142.2536  133.5948  156.7895 O.3     1  UNL1       -0.4045
     45 C         143.6502  133.3240  157.2652 C.3     1  UNL1        0.5753
     46 F         145.0468  133.0533  157.7409 F       1  UNL1       -0.1328
     47 F         143.9183  132.5259  156.0238 F       1  UNL1       -0.1328
     48 F         143.3821  134.1221  158.5066 F       1  UNL1       -0.1328
@<TRIPOS>BOND
     1    20    21    1
     2    21    22    1
     3    21    11    1
     4    11    12   ar
     5    12    13   ar
     6    13    23    1
     7    23    24    3
     8    13    14   ar
     9    14    15   ar
    10    15    16   ar
    11    16    17   ar
    12    17     5    1
    13     5     6   ar
    14     6     7   ar
    15     7     8   ar
    16     8     1    1
    17     1     2    2
    18     1     3   am
    19     3    25    1
    20    26    25    1
    21    26    27    1
    22    27    28    1
    23    28    32    1
    24    32    33   ar
    25    33    34   ar
    26    34    35   ar
    27    35    38    1
    28    38    39   ar
    29    39    40   ar
    30    40    41   ar
    31    41    42   ar
    32    42    43   ar
    33    43    44    1
    34    44    45    1
    35    45    46    1
    36    45    47    1
    37    45    48    1
    38    35    36   ar
    39    36    37   ar
    40    28    29   am
    41    29    30    2
    42    29    31    1
    43     8     9   ar
    44     9    10   ar
    45    17    18   ar
    46    18    19   ar
    47    19    11   ar
    48    19    15   ar
    49    10     5   ar
    50    31    26    1
    51    37    32   ar
    52    43    38   ar
    53     3     4    1
@<TRIPOS>MOLECULE
*****
 48 53 0 0 0
SMALL
GASTEIGER

@<TRIPOS>ATOM
      1 C         142.6721  139.0594  159.8020 C.2     1  UNL1        0.2459
      2 O         144.1518  139.1643  159.5796 O.2     1  UNL1       -0.2701
      3 N         141.7572  138.7858  158.6453 N.am    1  UNL1       -0.2975
      4 H         140.7860  138.7170  158.7913 H       1  UNL1        0.1499
      5 C         140.9776  139.5659  163.9400 C.ar    1  UNL1        0.0536
      6 C         141.0855  138.1971  163.3361 C.ar    1  UNL1        0.0048
      7 C         141.6503  138.0283  161.9567 C.ar    1  UNL1        0.0047
      8 C         142.1073  139.2283  161.1813 C.ar    1  UNL1        0.0534
      9 C         141.9994  140.5971  161.7852 C.ar    1  UNL1        0.0047
     10 C         141.4346  140.7658  163.1646 C.ar    1  UNL1        0.0048
     11 C         140.0816  141.1945  168.9279 C.ar    1  UNL1        0.0143
     12 C         139.0790  140.8139  169.9766 C.ar    1  UNL1        0.0091
     13 C         138.0520  139.7602  169.6851 C.ar    1  UNL1        0.0698
     14 C         138.0276  139.0871  168.3448 C.ar    1  UNL1        0.0326
     15 C         139.0302  139.4677  167.2960 C.ar    1  UNL1        0.1192
     16 N         139.2500  138.9815  165.8942 N.ar    1  UNL1       -0.2082
     17 C         140.4128  139.7347  165.3193 C.ar    1  UNL1        0.2296
     18 O         140.9117  140.6865  166.3659 O.2     1  UNL1       -0.4349
     19 C         140.0572  140.5214  167.5876 C.ar    1  UNL1        0.1607
     20 C         142.5668  141.9424  169.0468 C.3     1  UNL1        0.0048
     21 C         141.1086  142.2482  169.2194 C.3     1  UNL1        0.0254
     22 C         140.6772  143.6079  169.6836 C.3     1  UNL1        0.0048
     23 C         137.0494  139.3796  170.7339 C.1     1  UNL1        0.1005
     24 N         136.0468  138.9989  171.7827 N.1     1  UNL1       -0.1908
     25 C         142.3220  138.6169  157.2659 C.3     1  UNL1        0.1355
     26 C         142.1650  137.3105  156.5459 C.3     1  UNL1        0.2101
     27 C         142.8594  136.0258  156.8888 C.3     1  UNL1        0.1483
     28 N         142.4096  134.9807  155.9115 N.am    1  UNL1       -0.2059
     29 C         141.4372  135.6193  154.9645 C.2     1  UNL1        0.4098
     30 O         140.7386  134.9377  153.8255 O.2     1  UNL1       -0.2258
     31 O         141.2861  137.0593  155.3567 O.3     1  UNL1       -0.4345
     32 C         142.8541  133.5483  155.8855 C.ar    1  UNL1        0.1400
     33 C         141.8644  132.4611  155.5879 C.ar    1  UNL1        0.0348
     34 C         142.3089  131.0287  155.5619 C.ar    1  UNL1        0.0045
     35 C         143.7431  130.6834  155.8337 C.ar    1  UNL1        0.0222
     36 C         144.7328  131.7707  156.1313 C.ar    1  UNL1        0.1004
     37 N         144.2883  133.2030  156.1573 N.ar    1  UNL1       -0.2287
     38 C         144.1876  129.2511  155.8077 C.ar    1  UNL1        0.0358
     39 C         144.9420  128.7213  154.6245 C.ar    1  UNL1        0.0031
     40 C         145.3865  127.2888  154.5986 C.ar    1  UNL1        0.0002
     41 C         145.0766  126.3863  155.7559 C.ar    1  UNL1        0.0031
     42 C         144.3221  126.9162  156.9391 C.ar    1  UNL1        0.0372
     43 C         143.8776  128.3486  156.9650 C.ar    1  UNL1        0.1468
     44 O         143.1231  128.8784  158.1482 O.3     1  UNL1       -0.4045
     45 C         143.6600  128.6725  159.5337 C.3     1  UNL1        0.5753
     46 F         144.1969  128.4665  160.9191 F       1  UNL1       -0.1328
     47 F         144.9501  129.3228  159.1304 F       1  UNL1       -0.1328
     48 F         142.3699  128.0221  159.9369 F       1  UNL1       -0.1328
@<TRIPOS>BOND
     1    20    21    1
     2    21    22    1
     3    21    11    1
     4    11    12   ar
     5    12    13   ar
     6    13    23    1
     7    23    24    3
     8    13    14   ar
     9    14    15   ar
    10    15    16   ar
    11    16    17   ar
    12    17     5    1
    13     5     6   ar
    14     6     7   ar
    15     7     8   ar
    16     8     1    1
    17     1     2    2
    18     1     3   am
    19     3    25    1
    20    26    25    1
    21    26    27    1
    22    27    28    1
    23    28    32    1
    24    32    33   ar
    25    33    34   ar
    26    34    35   ar
    27    35    38    1
    28    38    39   ar
    29    39    40   ar
    30    40    41   ar
    31    41    42   ar
    32    42    43   ar
    33    43    44    1
    34    44    45    1
    35    45    46    1
    36    45    47    1
    37    45    48    1
    38    35    36   ar
    39    36    37   ar
    40    28    29   am
    41    29    30    2
    42    29    31    1
    43     8     9   ar
    44     9    10   ar
    45    17    18   ar
    46    18    19   ar
    47    19    11   ar
    48    19    15   ar
    49    10     5   ar
    50    31    26    1
    51    37    32   ar
    52    43    38   ar
    53     3     4    1
@<TRIPOS>MOLECULE
*****
 48 53 0 0 0
SMALL
GASTEIGER

@<TRIPOS>ATOM
      1 C         142.5934  143.9912  158.4026 C.2     1  UNL1        0.2459
      2 O         142.5700  145.4394  158.0125 O.2     1  UNL1       -0.2701
      3 N         142.9746  142.9487  157.3938 N.am    1  UNL1       -0.2975
      4 H         142.9899  141.9982  157.6499 H       1  UNL1        0.1499
      5 C         141.5198  142.7744  162.5999 C.ar    1  UNL1        0.0536
      6 C         140.4507  143.2449  161.6588 C.ar    1  UNL1        0.0048
      7 C         140.8087  143.6505  160.2597 C.ar    1  UNL1        0.0047
      8 C         142.2355  143.5856  159.8017 C.ar    1  UNL1        0.0534
      9 C         143.3046  143.1151  160.7428 C.ar    1  UNL1        0.0047
     10 C         142.9467  142.7095  162.1419 C.ar    1  UNL1        0.0048
     11 C         139.5800  140.1910  166.8304 C.ar    1  UNL1        0.0143
     12 C         139.6308  140.4408  168.3086 C.ar    1  UNL1        0.0091
     13 C         140.3521  141.6430  168.8417 C.ar    1  UNL1        0.0698
     14 C         141.0228  142.5955  167.8966 C.ar    1  UNL1        0.0326
     15 C         140.9720  142.3456  166.4184 C.ar    1  UNL1        0.1192
     16 N         141.5352  143.1030  165.2526 N.ar    1  UNL1       -0.2082
     17 C         141.1619  142.3687  163.9990 C.ar    1  UNL1        0.2296
     18 O         140.3680  141.1577  164.3900 O.2     1  UNL1       -0.4349
     19 C         140.2506  141.1434  165.8854 C.ar    1  UNL1        0.1607
     20 C         139.3718  138.2870  165.0750 C.3     1  UNL1        0.0048
     21 C         138.8585  138.9887  166.2974 C.3     1  UNL1        0.0254
     22 C         137.6238  138.4882  166.9867 C.3     1  UNL1        0.0048
     23 C         140.4029  141.8928  170.3199 C.1     1  UNL1        0.1005
     24 N         140.4538  142.1427  171.7981 N.1     1  UNL1       -0.1908
     25 C         143.3324  143.3543  155.9947 C.3     1  UNL1        0.1355
     26 C         144.3572  142.5736  155.2263 C.3     1  UNL1        0.2101
     27 C         145.8418  142.7829  155.2725 C.3     1  UNL1        0.1483
     28 N         146.4793  141.7852  154.3517 N.am    1  UNL1       -0.2059
     29 C         145.3888  140.9593  153.7362 C.2     1  UNL1        0.4098
     30 O         145.5768  139.8423  152.7529 O.2     1  UNL1       -0.2258
     31 O         144.0772  141.4467  154.2769 O.3     1  UNL1       -0.4345
     32 C         147.9494  141.6390  154.0917 C.ar    1  UNL1        0.1400
     33 C         148.9247  141.7314  155.2276 C.ar    1  UNL1        0.0348
     34 C         150.3948  141.5852  154.9677 C.ar    1  UNL1        0.0045
     35 C         150.8896  141.3466  153.5719 C.ar    1  UNL1        0.0222
     36 C         149.9142  141.2542  152.4360 C.ar    1  UNL1        0.1004
     37 N         148.4442  141.4004  152.6959 N.ar    1  UNL1       -0.2287
     38 C         152.3595  141.2004  153.3120 C.ar    1  UNL1        0.0358
     39 C         152.9498  139.8399  153.0873 C.ar    1  UNL1        0.0031
     40 C         154.4199  139.6937  152.8274 C.ar    1  UNL1        0.0002
     41 C         155.2997  140.9080  152.7921 C.ar    1  UNL1        0.0031
     42 C         154.7094  142.2686  153.0168 C.ar    1  UNL1        0.0372
     43 C         153.2394  142.4148  153.2767 C.ar    1  UNL1        0.1468
     44 O         152.6491  143.7753  153.5013 O.3     1  UNL1       -0.4045
     45 C         153.3112  144.7334  154.4468 C.3     1  UNL1        0.5753
     46 F         153.9732  145.6913  155.3923 F       1  UNL1       -0.1328
     47 F         153.9124  145.4655  153.2839 F       1  UNL1       -0.1328
     48 F         152.7099  144.0012  155.6097 F       1  UNL1       -0.1328
@<TRIPOS>BOND
     1    20    21    1
     2    21    22    1
     3    21    11    1
     4    11    12   ar
     5    12    13   ar
     6    13    23    1
     7    23    24    3
     8    13    14   ar
     9    14    15   ar
    10    15    16   ar
    11    16    17   ar
    12    17     5    1
    13     5     6   ar
    14     6     7   ar
    15     7     8   ar
    16     8     1    1
    17     1     2    2
    18     1     3   am
    19     3    25    1
    20    26    25    1
    21    26    27    1
    22    27    28    1
    23    28    32    1
    24    32    33   ar
    25    33    34   ar
    26    34    35   ar
    27    35    38    1
    28    38    39   ar
    29    39    40   ar
    30    40    41   ar
    31    41    42   ar
    32    42    43   ar
    33    43    44    1
    34    44    45    1
    35    45    46    1
    36    45    47    1
    37    45    48    1
    38    35    36   ar
    39    36    37   ar
    40    28    29   am
    41    29    30    2
    42    29    31    1
    43     8     9   ar
    44     9    10   ar
    45    17    18   ar
    46    18    19   ar
    47    19    11   ar
    48    19    15   ar
    49    10     5   ar
    50    31    26    1
    51    37    32   ar
    52    43    38   ar
    53     3     4    1
@<TRIPOS>MOLECULE
*****
 48 53 0 0 0
SMALL
GASTEIGER

@<TRIPOS>ATOM
      1 C         139.2604  140.9894  157.8540 C.2     1  UNL1        0.2459
      2 O         139.2351  139.6579  157.1639 O.2     1  UNL1       -0.2701
      3 N         138.8741  142.2301  157.1047 N.am    1  UNL1       -0.2975
      4 H         138.8908  143.1040  157.5577 H       1  UNL1        0.1499
      5 C         140.4953  141.2617  162.1727 C.ar    1  UNL1        0.0536
      6 C         140.0720  139.9436  161.5954 C.ar    1  UNL1        0.0048
      7 C         139.6604  139.8529  160.1558 C.ar    1  UNL1        0.0047
      8 C         139.6721  141.0802  159.2936 C.ar    1  UNL1        0.0534
      9 C         140.0954  142.3983  159.8709 C.ar    1  UNL1        0.0047
     10 C         140.5070  142.4890  161.3105 C.ar    1  UNL1        0.0048
     11 C         140.6695  140.8064  167.4734 C.ar    1  UNL1        0.0143
     12 C         141.6397  141.2673  168.5204 C.ar    1  UNL1        0.0091
     13 C         142.8669  142.0316  168.1213 C.ar    1  UNL1        0.0698
     14 C         143.1242  142.3352  166.6750 C.ar    1  UNL1        0.0326
     15 C         142.1540  141.8744  165.6279 C.ar    1  UNL1        0.1192
     16 N         142.1419  142.0243  164.1355 N.ar    1  UNL1       -0.2082
     17 C         140.9070  141.3525  163.6123 C.ar    1  UNL1        0.2296
     18 O         140.1560  140.7874  164.7813 O.2     1  UNL1       -0.4349
     19 C         140.9267  141.1100  166.0271 C.ar    1  UNL1        0.1607
     20 C         138.9345  140.1213  169.2818 C.3     1  UNL1        0.0048
     21 C         139.4422  140.0420  167.8725 C.3     1  UNL1        0.0254
     22 C         138.7224  139.1983  166.8624 C.3     1  UNL1        0.0048
     23 C         143.8371  142.4925  169.1685 C.1     1  UNL1        0.1005
     24 N         144.8073  142.9533  170.2156 N.1     1  UNL1       -0.1908
     25 C         138.4625  142.1393  155.6652 C.3     1  UNL1        0.1355
     26 C         137.0525  141.7706  155.3101 C.3     1  UNL1        0.2101
     27 C         136.0771  141.0580  156.1992 C.3     1  UNL1        0.1483
     28 N         134.7922  140.8967  155.4422 N.am    1  UNL1       -0.2059
     29 C         134.9736  141.5097  154.0852 C.2     1  UNL1        0.4098
     30 O         133.9395  141.5717  153.0004 O.2     1  UNL1       -0.2258
     31 O         136.3706  142.0498  154.0036 O.3     1  UNL1       -0.4345
     32 C         133.5448  140.2382  155.9526 C.ar    1  UNL1        0.1400
     33 C         132.2457  140.9879  155.9492 C.ar    1  UNL1        0.0348
     34 C         130.9983  140.3293  156.4596 C.ar    1  UNL1        0.0045
     35 C         131.0502  138.9210  156.9733 C.ar    1  UNL1        0.0222
     36 C         132.3494  138.1713  156.9766 C.ar    1  UNL1        0.1004
     37 N         133.5967  138.8298  156.4663 N.ar    1  UNL1       -0.2287
     38 C         129.8029  138.2624  157.4836 C.ar    1  UNL1        0.0358
     39 C         129.5748  138.1306  158.9603 C.ar    1  UNL1        0.0031
     40 C         128.3274  137.4720  159.4706 C.ar    1  UNL1        0.0002
     41 C         127.3082  136.9453  158.5043 C.ar    1  UNL1        0.0031
     42 C         127.5363  137.0772  157.0276 C.ar    1  UNL1        0.0372
     43 C         128.7837  137.7357  156.5173 C.ar    1  UNL1        0.1468
     44 O         129.0118  137.8676  155.0406 O.3     1  UNL1       -0.4045
     45 C         127.9891  138.5506  154.1817 C.3     1  UNL1        0.5753
     46 F         126.9663  139.2335  153.3229 F       1  UNL1       -0.1328
     47 F         128.7891  139.8182  154.2371 F       1  UNL1       -0.1328
     48 F         127.1891  137.2829  154.1264 F       1  UNL1       -0.1328
@<TRIPOS>BOND
     1    20    21    1
     2    21    22    1
     3    21    11    1
     4    11    12   ar
     5    12    13   ar
     6    13    23    1
     7    23    24    3
     8    13    14   ar
     9    14    15   ar
    10    15    16   ar
    11    16    17   ar
    12    17     5    1
    13     5     6   ar
    14     6     7   ar
    15     7     8   ar
    16     8     1    1
    17     1     2    2
    18     1     3   am
    19     3    25    1
    20    26    25    1
    21    26    27    1
    22    27    28    1
    23    28    32    1
    24    32    33   ar
    25    33    34   ar
    26    34    35   ar
    27    35    38    1
    28    38    39   ar
    29    39    40   ar
    30    40    41   ar
    31    41    42   ar
    32    42    43   ar
    33    43    44    1
    34    44    45    1
    35    45    46    1
    36    45    47    1
    37    45    48    1
    38    35    36   ar
    39    36    37   ar
    40    28    29   am
    41    29    30    2
    42    29    31    1
    43     8     9   ar
    44     9    10   ar
    45    17    18   ar
    46    18    19   ar
    47    19    11   ar
    48    19    15   ar
    49    10     5   ar
    50    31    26    1
    51    37    32   ar
    52    43    38   ar
    53     3     4    1
@<TRIPOS>MOLECULE
*****
 48 53 0 0 0
SMALL
GASTEIGER

@<TRIPOS>ATOM
      1 C         143.4366  142.4265  158.8534 C.2     1  UNL1        0.2459
      2 O         142.4650  142.7871  157.7691 O.2     1  UNL1       -0.2701
      3 N         144.8943  142.2744  158.5341 N.am    1  UNL1       -0.2975
      4 H         145.5320  142.0377  159.2459 H       1  UNL1        0.1499
      5 C         141.9783  141.8014  163.0644 C.ar    1  UNL1        0.0536
      6 C         140.9936  142.0248  161.9552 C.ar    1  UNL1        0.0048
      7 C         141.4798  142.2332  160.5515 C.ar    1  UNL1        0.0047
      8 C         142.9505  142.2181  160.2571 C.ar    1  UNL1        0.0534
      9 C         143.9352  141.9947  161.3664 C.ar    1  UNL1        0.0047
     10 C         143.4490  141.7863  162.7701 C.ar    1  UNL1        0.0048
     11 C         139.3975  140.0138  167.3631 C.ar    1  UNL1        0.0143
     12 C         139.4394  140.3723  168.8190 C.ar    1  UNL1        0.0091
     13 C         140.3650  141.4502  169.2996 C.ar    1  UNL1        0.0698
     14 C         141.2489  142.1698  168.3243 C.ar    1  UNL1        0.0326
     15 C         141.2070  141.8113  166.8684 C.ar    1  UNL1        0.1192
     16 N         141.9554  142.3426  165.6820 N.ar    1  UNL1       -0.2082
     17 C         141.4922  141.5930  164.4681 C.ar    1  UNL1        0.2296
     18 O         140.4575  140.5983  164.9043 O.2     1  UNL1       -0.4349
     19 C         140.2813  140.7332  166.3878 C.ar    1  UNL1        0.1607
     20 C         137.3199  138.4996  167.7386 C.3     1  UNL1        0.0048
     21 C         138.4718  138.9357  166.8825 C.3     1  UNL1        0.0254
     22 C         138.6980  138.2938  165.5457 C.3     1  UNL1        0.0048
     23 C         140.4069  141.8088  170.7556 C.1     1  UNL1        0.1005
     24 N         140.4487  142.1673  172.2115 N.1     1  UNL1       -0.1908
     25 C         145.3804  142.4827  157.1305 C.3     1  UNL1        0.1355
     26 C         145.1815  141.4102  156.1009 C.3     1  UNL1        0.2101
     27 C         144.4189  140.1331  156.2942 C.3     1  UNL1        0.1483
     28 N         144.4764  139.3600  155.0101 N.am    1  UNL1       -0.2059
     29 C         145.2745  140.1594  154.0230 C.2     1  UNL1        0.4098
     30 O         145.5827  139.7615  152.6100 O.2     1  UNL1       -0.2258
     31 O         145.7103  141.4265  154.6973 O.3     1  UNL1       -0.4345
     32 C         143.8464  138.0224  154.7572 C.ar    1  UNL1        0.1400
     33 C         144.4428  136.7861  155.3620 C.ar    1  UNL1        0.0348
     34 C         143.8128  135.4485  155.1091 C.ar    1  UNL1        0.0045
     35 C         142.5863  135.3472  154.2515 C.ar    1  UNL1        0.0222
     36 C         141.9899  136.5836  153.6467 C.ar    1  UNL1        0.1004
     37 N         142.6199  137.9211  153.8996 N.ar    1  UNL1       -0.2287
     38 C         141.9564  134.0097  153.9987 C.ar    1  UNL1        0.0358
     39 C         141.5768  133.6112  152.6033 C.ar    1  UNL1        0.0031
     40 C         140.9467  132.2736  152.3505 C.ar    1  UNL1        0.0002
     41 C         140.6963  131.3345  153.4930 C.ar    1  UNL1        0.0031
     42 C         141.0759  131.7330  154.8883 C.ar    1  UNL1        0.0372
     43 C         141.7059  133.0706  155.1412 C.ar    1  UNL1        0.1468
     44 O         142.0855  133.4691  156.5365 O.3     1  UNL1       -0.4045
     45 C         143.3007  132.8724  157.1827 C.3     1  UNL1        0.5753
     46 F         144.5159  132.2757  157.8287 F       1  UNL1       -0.1328
     47 F         143.3136  133.9863  158.1871 F       1  UNL1       -0.1328
     48 F         143.2878  131.7585  156.1781 F       1  UNL1       -0.1328
@<TRIPOS>BOND
     1    20    21    1
     2    21    22    1
     3    21    11    1
     4    11    12   ar
     5    12    13   ar
     6    13    23    1
     7    23    24    3
     8    13    14   ar
     9    14    15   ar
    10    15    16   ar
    11    16    17   ar
    12    17     5    1
    13     5     6   ar
    14     6     7   ar
    15     7     8   ar
    16     8     1    1
    17     1     2    2
    18     1     3   am
    19     3    25    1
    20    26    25    1
    21    26    27    1
    22    27    28    1
    23    28    32    1
    24    32    33   ar
    25    33    34   ar
    26    34    35   ar
    27    35    38    1
    28    38    39   ar
    29    39    40   ar
    30    40    41   ar
    31    41    42   ar
    32    42    43   ar
    33    43    44    1
    34    44    45    1
    35    45    46    1
    36    45    47    1
    37    45    48    1
    38    35    36   ar
    39    36    37   ar
    40    28    29   am
    41    29    30    2
    42    29    31    1
    43     8     9   ar
    44     9    10   ar
    45    17    18   ar
    46    18    19   ar
    47    19    11   ar
    48    19    15   ar
    49    10     5   ar
    50    31    26    1
    51    37    32   ar
    52    43    38   ar
    53     3     4    1
@<TRIPOS>MOLECULE
*****
 48 53 0 0 0
SMALL
GASTEIGER

@<TRIPOS>ATOM
      1 C         138.6272  142.4186  156.7990 C.2     1  UNL1        0.2459
      2 O         137.2638  141.7935  156.7936 O.2     1  UNL1       -0.2701
      3 N         139.8235  141.6058  157.1968 N.am    1  UNL1       -0.2975
      4 H         140.7184  142.0161  157.2003 H       1  UNL1        0.1499
      5 C         139.1288  146.7329  155.6217 C.ar    1  UNL1        0.0536
      6 C         138.0103  145.9214  155.0382 C.ar    1  UNL1        0.0048
      7 C         137.8431  144.4833  155.4307 C.ar    1  UNL1        0.0047
      8 C         138.7944  143.8567  156.4066 C.ar    1  UNL1        0.0534
      9 C         139.9129  144.6682  156.9900 C.ar    1  UNL1        0.0047
     10 C         140.0801  146.1063  156.5976 C.ar    1  UNL1        0.0048
     11 C         140.8582  151.2558  153.4111 C.ar    1  UNL1        0.0143
     12 C         140.4229  152.6879  153.5085 C.ar    1  UNL1        0.0091
     13 C         139.2629  153.0614  154.3830 C.ar    1  UNL1        0.0698
     14 C         138.5380  152.0028  155.1601 C.ar    1  UNL1        0.0326
     15 C         138.9733  150.5706  155.0627 C.ar    1  UNL1        0.1192
     16 N         138.4557  149.3184  155.7061 N.ar    1  UNL1       -0.2082
     17 C         139.2960  148.1710  155.2293 C.ar    1  UNL1        0.2296
     18 O         140.3328  148.7140  154.2912 O.2     1  UNL1       -0.4349
     19 C         140.1333  150.1972  154.1882 C.ar    1  UNL1        0.1607
     20 C         142.1132  149.4977  151.9675 C.3     1  UNL1        0.0048
     21 C         142.0183  150.8823  152.5366 C.3     1  UNL1        0.0254
     22 C         143.0834  151.8935  152.2312 C.3     1  UNL1        0.0048
     23 C         138.8277  154.4937  154.4804 C.1     1  UNL1        0.1005
     24 N         138.3925  155.9258  154.5778 N.1     1  UNL1       -0.1908
     25 C         139.6563  140.1677  157.5892 C.3     1  UNL1        0.1355
     26 C         140.2088  139.6774  158.8947 C.3     1  UNL1        0.2101
     27 C         139.7701  140.1194  160.2593 C.3     1  UNL1        0.1483
     28 N         140.5871  139.3742  161.2727 N.am    1  UNL1       -0.2059
     29 C         141.5308  138.4716  160.5345 C.2     1  UNL1        0.4098
     30 O         142.5323  137.5445  161.1567 O.2     1  UNL1       -0.2258
     31 O         141.2968  138.6591  159.0647 O.3     1  UNL1       -0.4345
     32 C         140.4794  139.5080  162.7629 C.ar    1  UNL1        0.1400
     33 C         140.1844  138.3022  163.6048 C.ar    1  UNL1        0.0348
     34 C         140.0767  138.4360  165.0950 C.ar    1  UNL1        0.0045
     35 C         140.2641  139.7757  165.7432 C.ar    1  UNL1        0.0222
     36 C         140.5591  140.9815  164.9012 C.ar    1  UNL1        0.1004
     37 N         140.6668  140.8477  163.4111 N.ar    1  UNL1       -0.2287
     38 C         140.1564  139.9095  167.2332 C.ar    1  UNL1        0.0358
     39 C         138.8078  139.9199  167.8898 C.ar    1  UNL1        0.0031
     40 C         138.7002  140.0537  169.3800 C.ar    1  UNL1        0.0002
     41 C         139.9411  140.1771  170.2136 C.ar    1  UNL1        0.0031
     42 C         141.2897  140.1667  169.5570 C.ar    1  UNL1        0.0372
     43 C         141.3974  140.0328  168.0668 C.ar    1  UNL1        0.1468
     44 O         142.7460  140.0224  167.4102 O.3     1  UNL1       -0.4045
     45 C         143.3704  138.7217  166.9999 C.3     1  UNL1        0.5753
     46 F         143.9947  137.4210  166.5895 F       1  UNL1       -0.1328
     47 F         143.2040  138.2012  168.3967 F       1  UNL1       -0.1328
     48 F         143.5367  139.2423  165.6030 F       1  UNL1       -0.1328
@<TRIPOS>BOND
     1    20    21    1
     2    21    22    1
     3    21    11    1
     4    11    12   ar
     5    12    13   ar
     6    13    23    1
     7    23    24    3
     8    13    14   ar
     9    14    15   ar
    10    15    16   ar
    11    16    17   ar
    12    17     5    1
    13     5     6   ar
    14     6     7   ar
    15     7     8   ar
    16     8     1    1
    17     1     2    2
    18     1     3   am
    19     3    25    1
    20    26    25    1
    21    26    27    1
    22    27    28    1
    23    28    32    1
    24    32    33   ar
    25    33    34   ar
    26    34    35   ar
    27    35    38    1
    28    38    39   ar
    29    39    40   ar
    30    40    41   ar
    31    41    42   ar
    32    42    43   ar
    33    43    44    1
    34    44    45    1
    35    45    46    1
    36    45    47    1
    37    45    48    1
    38    35    36   ar
    39    36    37   ar
    40    28    29   am
    41    29    30    2
    42    29    31    1
    43     8     9   ar
    44     9    10   ar
    45    17    18   ar
    46    18    19   ar
    47    19    11   ar
    48    19    15   ar
    49    10     5   ar
    50    31    26    1
    51    37    32   ar
    52    43    38   ar
    53     3     4    1
