@<TRIPOS>MOLECULE
*****
 26 28 0 0 0
SMALL
GASTEIGER

@<TRIPOS>ATOM
      1 C         140.1380  145.0667  162.9079 C.ar    1  UNL1       -0.0208
      2 C         138.8161  144.6860  163.5060 C.ar    1  UNL1       -0.0042
      3 C         138.7688  143.8372  164.7417 C.ar    1  UNL1       -0.0003
      4 C         140.0432  143.3689  165.3793 C.ar    1  UNL1       -0.0000
      5 C         141.3650  143.7496  164.7812 C.ar    1  UNL1       -0.0003
      6 C         141.4124  144.5985  163.5455 C.ar    1  UNL1       -0.0042
      7 C         139.9958  142.5200  166.6151 C.ar    1  UNL1        0.0001
      8 C         139.6389  141.0666  166.5134 C.ar    1  UNL1        0.0014
      9 C         139.5914  140.2177  167.7492 C.ar    1  UNL1        0.0199
     10 C         139.9009  140.8222  169.0867 C.ar    1  UNL1        0.1217
     11 C         140.2578  142.2756  169.1884 C.ar    1  UNL1        0.0199
     12 C         140.3053  143.1245  167.9526 C.ar    1  UNL1        0.0014
     13 S         139.8535  139.9733  170.3225 S.O2    1  UNL1        0.0572
     14 N         139.8061  139.1245  171.5582 N.3     1  UNL1       -0.2035
     15 O         141.3524  139.9203  170.3436 O.2     1  UNL1       -0.1532
     16 O         138.3546  140.0264  170.3014 O.2     1  UNL1       -0.1532
     17 H         140.7563  138.8981  171.8519 H       1  UNL1        0.1442
     18 H         139.2972  138.2631  171.3597 H       1  UNL1        0.1442
     19 C         140.1854  145.9156  161.6721 C.3     1  UNL1        0.0437
     20 C         140.5037  145.2920  160.3455 C.3     1  UNL1        0.0768
     21 C         143.0216  143.2183  160.4411 C.3     1  UNL1        0.0173
     22 C         141.5840  142.8501  160.2228 C.3     1  UNL1        0.0576
     23 C         141.0514  141.4641  160.0100 C.3     1  UNL1        0.0174
     24 C         139.5648  141.5607  159.8346 C.3     1  UNL1        0.0187
     25 C         139.1787  143.0064  159.9389 C.3     1  UNL1        0.0721
     26 N         140.4267  143.8033  160.1788 N.3     1  UNL1       -0.2737
@<TRIPOS>BOND
     1    22    21    1
     2    22    23    1
     3    23    24    1
     4    24    25    1
     5    25    26    1
     6    26    20    1
     7    20    19    1
     8    19     1    1
     9     1     2   ar
    10     2     3   ar
    11     3     4   ar
    12     4     7    1
    13     7     8   ar
    14     8     9   ar
    15     9    10   ar
    16    10    13    1
    17    13    14    1
    18    13    15    2
    19    13    16    2
    20    10    11   ar
    21    11    12   ar
    22     4     5   ar
    23     5     6   ar
    24    26    22    1
    25     6     1   ar
    26    12     7   ar
    27    14    17    1
    28    14    18    1
@<TRIPOS>MOLECULE
*****
 26 28 0 0 0
SMALL
GASTEIGER

@<TRIPOS>ATOM
      1 C         140.0514  144.9908  162.8307 C.ar    1  UNL1       -0.0208
      2 C         141.3208  144.3965  163.3650 C.ar    1  UNL1       -0.0042
      3 C         141.2925  143.5661  164.6138 C.ar    1  UNL1       -0.0003
      4 C         139.9949  143.3298  165.3282 C.ar    1  UNL1       -0.0000
      5 C         138.7255  143.9241  164.7938 C.ar    1  UNL1       -0.0003
      6 C         138.7538  144.7546  163.5451 C.ar    1  UNL1       -0.0042
      7 C         139.9667  142.4993  166.5770 C.ar    1  UNL1        0.0001
      8 C         140.3112  143.1199  167.8984 C.ar    1  UNL1        0.0014
      9 C         140.2830  142.2893  169.1472 C.ar    1  UNL1        0.0199
     10 C         139.9102  140.8382  169.0745 C.ar    1  UNL1        0.1217
     11 C         139.5657  140.2176  167.7531 C.ar    1  UNL1        0.0199
     12 C         139.5940  141.0481  166.5043 C.ar    1  UNL1        0.0014
     13 S         139.8820  140.0077  170.3233 S.O2    1  UNL1        0.0572
     14 N         139.8538  139.1771  171.5720 N.3     1  UNL1       -0.2035
     15 O         138.3829  139.9875  170.2760 O.2     1  UNL1       -0.1532
     16 O         141.3811  140.0278  170.3705 O.2     1  UNL1       -0.1532
     17 H         138.8863  138.9760  171.8247 H       1  UNL1        0.1442
     18 H         140.3041  139.6887  172.3309 H       1  UNL1        0.1442
     19 C         140.0796  145.8213  161.5818 C.3     1  UNL1        0.0437
     20 C         140.9892  145.4438  160.4505 C.3     1  UNL1        0.0768
     21 C         139.4718  142.5910  159.9945 C.3     1  UNL1        0.0173
     22 C         139.7147  143.6375  158.9478 C.3     1  UNL1        0.0576
     23 C         139.3028  143.5565  157.5077 C.3     1  UNL1        0.0174
     24 C         139.7458  144.8178  156.8272 C.3     1  UNL1        0.0187
     25 C         140.4314  145.6784  157.8468 C.3     1  UNL1        0.0721
     26 N         140.4122  144.9488  159.1573 N.3     1  UNL1       -0.2737
@<TRIPOS>BOND
     1    22    21    1
     2    22    23    1
     3    23    24    1
     4    24    25    1
     5    25    26    1
     6    26    20    1
     7    20    19    1
     8    19     1    1
     9     1     2   ar
    10     2     3   ar
    11     3     4   ar
    12     4     7    1
    13     7     8   ar
    14     8     9   ar
    15     9    10   ar
    16    10    13    1
    17    13    14    1
    18    13    15    2
    19    13    16    2
    20    10    11   ar
    21    11    12   ar
    22     4     5   ar
    23     5     6   ar
    24    26    22    1
    25     6     1   ar
    26    12     7   ar
    27    14    17    1
    28    14    18    1
@<TRIPOS>MOLECULE
*****
 26 28 0 0 0
SMALL
GASTEIGER

@<TRIPOS>ATOM
      1 C         140.1074  144.0059  162.4241 C.ar    1  UNL1       -0.0208
      2 C         139.7784  144.7839  163.6637 C.ar    1  UNL1       -0.0042
      3 C         139.7095  144.0871  164.9902 C.ar    1  UNL1       -0.0003
      4 C         139.9696  142.6124  165.0772 C.ar    1  UNL1       -0.0000
      5 C         140.2985  141.8344  163.8377 C.ar    1  UNL1       -0.0003
      6 C         140.3675  142.5312  162.5112 C.ar    1  UNL1       -0.0042
      7 C         139.9006  141.9157  166.4039 C.ar    1  UNL1        0.0001
      8 C         140.4705  142.5721  167.6263 C.ar    1  UNL1        0.0014
      9 C         140.4015  141.8754  168.9529 C.ar    1  UNL1        0.0199
     10 C         139.7627  140.5222  169.0570 C.ar    1  UNL1        0.1217
     11 C         139.1929  139.8658  167.8345 C.ar    1  UNL1        0.0199
     12 C         139.2618  140.5625  166.5080 C.ar    1  UNL1        0.0014
     13 S         139.6938  139.8255  170.3836 S.O2    1  UNL1        0.0572
     14 N         139.6248  139.1287  171.7101 N.3     1  UNL1       -0.2035
     15 O         141.1886  139.7020  170.3964 O.2     1  UNL1       -0.1532
     16 O         138.1989  139.9489  170.3707 O.2     1  UNL1       -0.1532
     17 H         140.5675  138.8916  172.0190 H       1  UNL1        0.1442
     18 H         139.0727  138.2760  171.6180 H       1  UNL1        0.1442
     19 C         140.1764  144.7026  161.0975 C.3     1  UNL1        0.0437
     20 C         141.5067  144.9641  160.4559 C.3     1  UNL1        0.0768
     21 C         143.4495  144.9883  163.0778 C.3     1  UNL1        0.0173
     22 C         143.5502  144.0466  161.9146 C.3     1  UNL1        0.0576
     23 C         144.5614  142.9507  161.7523 C.3     1  UNL1        0.0174
     24 C         144.2934  142.2622  160.4468 C.3     1  UNL1        0.0187
     25 C         143.1165  142.9327  159.8023 C.3     1  UNL1        0.0721
     26 N         142.6572  144.0355  160.7095 N.3     1  UNL1       -0.2737
@<TRIPOS>BOND
     1    22    21    1
     2    22    23    1
     3    23    24    1
     4    24    25    1
     5    25    26    1
     6    26    20    1
     7    20    19    1
     8    19     1    1
     9     1     2   ar
    10     2     3   ar
    11     3     4   ar
    12     4     7    1
    13     7     8   ar
    14     8     9   ar
    15     9    10   ar
    16    10    13    1
    17    13    14    1
    18    13    15    2
    19    13    16    2
    20    10    11   ar
    21    11    12   ar
    22     4     5   ar
    23     5     6   ar
    24    26    22    1
    25     6     1   ar
    26    12     7   ar
    27    14    17    1
    28    14    18    1
@<TRIPOS>MOLECULE
*****
 26 28 0 0 0
SMALL
GASTEIGER

@<TRIPOS>ATOM
      1 C         137.9192  139.8111  162.5810 C.ar    1  UNL1       -0.0208
      2 C         138.7842  138.8260  163.3099 C.ar    1  UNL1       -0.0042
      3 C         139.3444  139.1729  164.6574 C.ar    1  UNL1       -0.0003
      4 C         139.0397  140.5050  165.2760 C.ar    1  UNL1       -0.0000
      5 C         138.1747  141.4901  164.5471 C.ar    1  UNL1       -0.0003
      6 C         137.6145  141.1432  163.1996 C.ar    1  UNL1       -0.0042
      7 C         139.5999  140.8519  166.6235 C.ar    1  UNL1        0.0001
      8 C         140.3528  142.1351  166.8150 C.ar    1  UNL1        0.0014
      9 C         140.9131  142.4820  168.1626 C.ar    1  UNL1        0.0199
     10 C         140.7204  141.5458  169.3186 C.ar    1  UNL1        0.1217
     11 C         139.9675  140.2626  169.1270 C.ar    1  UNL1        0.0199
     12 C         139.4073  139.9157  167.7795 C.ar    1  UNL1        0.0014
     13 S         141.2807  141.8926  170.6661 S.O2    1  UNL1        0.0572
     14 N         141.8409  142.2395  172.0136 N.3     1  UNL1       -0.2035
     15 O         142.1884  142.9024  170.0287 O.2     1  UNL1       -0.1532
     16 O         140.3729  140.8828  171.3034 O.2     1  UNL1       -0.1532
     17 H         142.5498  142.9655  171.9104 H       1  UNL1        0.1442
     18 H         142.2624  141.4095  172.4304 H       1  UNL1        0.1442
     19 C         137.3589  139.4642  161.2335 C.3     1  UNL1        0.0437
     20 C         138.0707  139.9055  159.9891 C.3     1  UNL1        0.0768
     21 C         141.2443  139.9373  160.7485 C.3     1  UNL1        0.0173
     22 C         140.4163  141.1294  160.3702 C.3     1  UNL1        0.0576
     23 C         140.9017  142.5455  160.2746 C.3     1  UNL1        0.0174
     24 C         139.7428  143.4061  159.8664 C.3     1  UNL1        0.0187
     25 C         138.5413  142.5219  159.7097 C.3     1  UNL1        0.0721
     26 N         138.9576  141.1148  160.0211 N.3     1  UNL1       -0.2737
@<TRIPOS>BOND
     1    22    21    1
     2    22    23    1
     3    23    24    1
     4    24    25    1
     5    25    26    1
     6    26    20    1
     7    20    19    1
     8    19     1    1
     9     1     2   ar
    10     2     3   ar
    11     3     4   ar
    12     4     7    1
    13     7     8   ar
    14     8     9   ar
    15     9    10   ar
    16    10    13    1
    17    13    14    1
    18    13    15    2
    19    13    16    2
    20    10    11   ar
    21    11    12   ar
    22     4     5   ar
    23     5     6   ar
    24    26    22    1
    25     6     1   ar
    26    12     7   ar
    27    14    17    1
    28    14    18    1
@<TRIPOS>MOLECULE
*****
 26 28 0 0 0
SMALL
GASTEIGER

@<TRIPOS>ATOM
      1 C         142.9563  138.0604  162.0451 C.ar    1  UNL1       -0.0208
      2 C         143.9192  138.8774  162.8546 C.ar    1  UNL1       -0.0042
      3 C         143.5810  139.2538  164.2667 C.ar    1  UNL1       -0.0003
      4 C         142.2800  138.8131  164.8692 C.ar    1  UNL1       -0.0000
      5 C         141.3171  137.9960  164.0597 C.ar    1  UNL1       -0.0003
      6 C         141.6553  137.6197  162.6477 C.ar    1  UNL1       -0.0042
      7 C         141.9418  139.1895  166.2813 C.ar    1  UNL1        0.0001
      8 C         142.9682  139.0372  167.3645 C.ar    1  UNL1        0.0014
      9 C         142.6301  139.4136  168.7766 C.ar    1  UNL1        0.0199
     10 C         141.2654  139.9423  169.1055 C.ar    1  UNL1        0.1217
     11 C         140.2389  140.0946  168.0223 C.ar    1  UNL1        0.0199
     12 C         140.5771  139.7182  166.6103 C.ar    1  UNL1        0.0014
     13 S         140.9272  140.3187  170.5176 S.O2    1  UNL1        0.0572
     14 N         140.5890  140.6951  171.9296 N.3     1  UNL1       -0.2035
     15 O         142.2769  140.9547  170.6713 O.2     1  UNL1       -0.1532
     16 O         139.5775  139.6827  170.3638 O.2     1  UNL1       -0.1532
     17 H         141.3777  141.1882  172.3482 H       1  UNL1        0.1442
     18 H         140.3907  139.8518  172.4681 H       1  UNL1        0.1442
     19 C         143.2945  137.6839  160.6330 C.3     1  UNL1        0.0437
     20 C         142.9176  138.5955  159.5030 C.3     1  UNL1        0.0768
     21 C         139.6897  139.0706  159.5703 C.3     1  UNL1        0.0173
     22 C         140.4533  138.3554  158.4955 C.3     1  UNL1        0.0576
     23 C         139.8674  137.7329  157.2629 C.3     1  UNL1        0.0174
     24 C         140.9890  137.1299  156.4702 C.3     1  UNL1        0.0187
     25 C         142.2682  137.3796  157.2129 C.3     1  UNL1        0.0721
     26 N         141.9370  138.1370  158.4646 N.3     1  UNL1       -0.2737
@<TRIPOS>BOND
     1    22    21    1
     2    22    23    1
     3    23    24    1
     4    24    25    1
     5    25    26    1
     6    26    20    1
     7    20    19    1
     8    19     1    1
     9     1     2   ar
    10     2     3   ar
    11     3     4   ar
    12     4     7    1
    13     7     8   ar
    14     8     9   ar
    15     9    10   ar
    16    10    13    1
    17    13    14    1
    18    13    15    2
    19    13    16    2
    20    10    11   ar
    21    11    12   ar
    22     4     5   ar
    23     5     6   ar
    24    26    22    1
    25     6     1   ar
    26    12     7   ar
    27    14    17    1
    28    14    18    1
@<TRIPOS>MOLECULE
*****
 26 28 0 0 0
SMALL
GASTEIGER

@<TRIPOS>ATOM
      1 C         139.3757  138.7104  162.2370 C.ar    1  UNL1       -0.0208
      2 C         139.4166  140.1256  162.7322 C.ar    1  UNL1       -0.0042
      3 C         139.8301  140.4141  164.1449 C.ar    1  UNL1       -0.0003
      4 C         140.2026  139.2874  165.0624 C.ar    1  UNL1       -0.0000
      5 C         140.1617  137.8721  164.5671 C.ar    1  UNL1       -0.0003
      6 C         139.7482  137.5836  163.1544 C.ar    1  UNL1       -0.0042
      7 C         140.6161  139.5760  166.4751 C.ar    1  UNL1        0.0001
      8 C         142.0622  139.4942  166.8649 C.ar    1  UNL1        0.0014
      9 C         142.4757  139.7828  168.2777 C.ar    1  UNL1        0.0199
     10 C         141.4430  140.1531  169.3006 C.ar    1  UNL1        0.1217
     11 C         139.9968  140.2348  168.9107 C.ar    1  UNL1        0.0199
     12 C         139.5834  139.9463  167.4980 C.ar    1  UNL1        0.0014
     13 S         141.8564  140.4417  170.7133 S.O2    1  UNL1        0.0572
     14 N         142.2699  140.7302  172.1260 N.3     1  UNL1       -0.2035
     15 O         143.2934  140.2382  170.3343 O.2     1  UNL1       -0.1532
     16 O         140.4195  140.6451  171.0923 O.2     1  UNL1       -0.1532
     17 H         143.2848  140.6652  172.2032 H       1  UNL1        0.1442
     18 H         141.8370  140.0514  172.7523 H       1  UNL1        0.1442
     19 C         138.9622  138.4218  160.8242 C.3     1  UNL1        0.0437
     20 C         139.9866  138.4191  159.7286 C.3     1  UNL1        0.0768
     21 C         141.2805  141.4143  159.6693 C.3     1  UNL1        0.0173
     22 C         142.0074  140.1465  160.0071 C.3     1  UNL1        0.0576
     23 C         143.4567  140.0328  160.3769 C.3     1  UNL1        0.0174
     24 C         143.7577  138.5857  160.6327 C.3     1  UNL1        0.0187
     25 C         142.4943  137.8050  160.4210 C.3     1  UNL1        0.0721
     26 N         141.4127  138.7697  160.0343 N.3     1  UNL1       -0.2737
@<TRIPOS>BOND
     1    22    21    1
     2    22    23    1
     3    23    24    1
     4    24    25    1
     5    25    26    1
     6    26    20    1
     7    20    19    1
     8    19     1    1
     9     1     2   ar
    10     2     3   ar
    11     3     4   ar
    12     4     7    1
    13     7     8   ar
    14     8     9   ar
    15     9    10   ar
    16    10    13    1
    17    13    14    1
    18    13    15    2
    19    13    16    2
    20    10    11   ar
    21    11    12   ar
    22     4     5   ar
    23     5     6   ar
    24    26    22    1
    25     6     1   ar
    26    12     7   ar
    27    14    17    1
    28    14    18    1
@<TRIPOS>MOLECULE
*****
 26 28 0 0 0
SMALL
GASTEIGER

@<TRIPOS>ATOM
      1 C         137.9046  139.8801  162.4203 C.ar    1  UNL1       -0.0208
      2 C         138.8182  138.9118  163.1115 C.ar    1  UNL1       -0.0042
      3 C         139.3750  139.2415  164.4647 C.ar    1  UNL1       -0.0003
      4 C         139.0183  140.5394  165.1267 C.ar    1  UNL1       -0.0000
      5 C         138.1047  141.5076  164.4355 C.ar    1  UNL1       -0.0003
      6 C         137.5478  141.1780  163.0823 C.ar    1  UNL1       -0.0042
      7 C         139.5752  140.8690  166.4800 C.ar    1  UNL1        0.0001
      8 C         139.4284  139.8929  167.6095 C.ar    1  UNL1        0.0014
      9 C         139.9853  140.2225  168.9628 C.ar    1  UNL1        0.0199
     10 C         140.6890  141.5282  169.1865 C.ar    1  UNL1        0.1217
     11 C         140.8358  142.5043  168.0569 C.ar    1  UNL1        0.0199
     12 C         140.2789  142.1746  166.7037 C.ar    1  UNL1        0.0014
     13 S         141.2459  141.8578  170.5397 S.O2    1  UNL1        0.0572
     14 N         141.8028  142.1875  171.8928 N.3     1  UNL1       -0.2035
     15 O         142.2115  142.8167  169.9087 O.2     1  UNL1       -0.1532
     16 O         140.2802  140.8990  171.1706 O.2     1  UNL1       -0.1532
     17 H         142.5481  142.8769  171.7950 H       1  UNL1        0.1442
     18 H         142.1767  141.3411  172.3220 H       1  UNL1        0.1442
     19 C         137.3477  139.5505  161.0670 C.3     1  UNL1        0.0437
     20 C         138.0303  140.0574  159.8313 C.3     1  UNL1        0.0768
     21 C         140.5769  141.8205  160.8586 C.3     1  UNL1        0.0173
     22 C         140.6471  140.5514  160.0622 C.3     1  UNL1        0.0576
     23 C         141.9002  139.8698  159.5981 C.3     1  UNL1        0.0174
     24 C         141.5040  138.6381  158.8391 C.3     1  UNL1        0.0187
     25 C         140.0061  138.5585  158.8341 C.3     1  UNL1        0.0721
     26 N         139.4766  139.7410  159.5900 N.3     1  UNL1       -0.2737
@<TRIPOS>BOND
     1    22    21    1
     2    22    23    1
     3    23    24    1
     4    24    25    1
     5    25    26    1
     6    26    20    1
     7    20    19    1
     8    19     1    1
     9     1     2   ar
    10     2     3   ar
    11     3     4   ar
    12     4     7    1
    13     7     8   ar
    14     8     9   ar
    15     9    10   ar
    16    10    13    1
    17    13    14    1
    18    13    15    2
    19    13    16    2
    20    10    11   ar
    21    11    12   ar
    22     4     5   ar
    23     5     6   ar
    24    26    22    1
    25     6     1   ar
    26    12     7   ar
    27    14    17    1
    28    14    18    1
@<TRIPOS>MOLECULE
*****
 26 28 0 0 0
SMALL
GASTEIGER

@<TRIPOS>ATOM
      1 C         142.8840  138.0948  161.9971 C.ar    1  UNL1       -0.0208
      2 C         141.5962  137.6318  162.6113 C.ar    1  UNL1       -0.0042
      3 C         141.2644  138.0020  164.0265 C.ar    1  UNL1       -0.0003
      4 C         142.2205  138.8352  164.8275 C.ar    1  UNL1       -0.0000
      5 C         143.5083  139.2982  164.2134 C.ar    1  UNL1       -0.0003
      6 C         143.8400  138.9279  162.7982 C.ar    1  UNL1       -0.0042
      7 C         141.8887  139.2054  166.2428 C.ar    1  UNL1        0.0001
      8 C         140.5070  139.6739  166.5913 C.ar    1  UNL1        0.0014
      9 C         140.1752  140.0441  168.0065 C.ar    1  UNL1        0.0199
     10 C         141.2252  139.9459  169.0733 C.ar    1  UNL1        0.1217
     11 C         142.6069  139.4774  168.7248 C.ar    1  UNL1        0.0199
     12 C         142.9387  139.1072  167.3096 C.ar    1  UNL1        0.0014
     13 S         140.8935  140.3161  170.4885 S.O2    1  UNL1        0.0572
     14 N         140.5617  140.6863  171.9037 N.3     1  UNL1       -0.2035
     15 O         142.2961  140.8087  170.6884 O.2     1  UNL1       -0.1532
     16 O         139.4909  139.8235  170.2886 O.2     1  UNL1       -0.1532
     17 H         141.3858  141.0860  172.3527 H       1  UNL1        0.1442
     18 H         140.2676  139.8530  172.4131 H       1  UNL1        0.1442
     19 C         143.2158  137.7245  160.5819 C.3     1  UNL1        0.0437
     20 C         142.7014  138.5605  159.4477 C.3     1  UNL1        0.0768
     21 C         139.4535  138.7671  159.6889 C.3     1  UNL1        0.0173
     22 C         140.4228  139.9016  159.8414 C.3     1  UNL1        0.0576
     23 C         140.0695  141.3302  160.1316 C.3     1  UNL1        0.0174
     24 C         141.3440  142.1182  160.2001 C.3     1  UNL1        0.0187
     25 C         142.4851  141.1765  159.9522 C.3     1  UNL1        0.0721
     26 N         141.9157  139.8066  159.7306 N.3     1  UNL1       -0.2737
@<TRIPOS>BOND
     1    22    21    1
     2    22    23    1
     3    23    24    1
     4    24    25    1
     5    25    26    1
     6    26    20    1
     7    20    19    1
     8    19     1    1
     9     1     2   ar
    10     2     3   ar
    11     3     4   ar
    12     4     7    1
    13     7     8   ar
    14     8     9   ar
    15     9    10   ar
    16    10    13    1
    17    13    14    1
    18    13    15    2
    19    13    16    2
    20    10    11   ar
    21    11    12   ar
    22     4     5   ar
    23     5     6   ar
    24    26    22    1
    25     6     1   ar
    26    12     7   ar
    27    14    17    1
    28    14    18    1
@<TRIPOS>MOLECULE
*****
 26 28 0 0 0
SMALL
GASTEIGER

@<TRIPOS>ATOM
      1 C         139.6177  138.4765  162.0817 C.ar    1  UNL1       -0.0208
      2 C         138.8088  137.9345  163.2226 C.ar    1  UNL1       -0.0042
      3 C         139.1943  138.2581  164.6356 C.ar    1  UNL1       -0.0003
      4 C         140.3887  139.1238  164.9076 C.ar    1  UNL1       -0.0000
      5 C         141.1976  139.6659  163.7666 C.ar    1  UNL1       -0.0003
      6 C         140.8121  139.3422  162.3537 C.ar    1  UNL1       -0.0042
      7 C         140.7742  139.4475  166.3207 C.ar    1  UNL1        0.0001
      8 C         142.2127  139.3789  166.7401 C.ar    1  UNL1        0.0014
      9 C         142.5983  139.7025  168.1532 C.ar    1  UNL1        0.0199
     10 C         141.5452  140.0948  169.1468 C.ar    1  UNL1        0.1217
     11 C         140.1066  140.1634  168.7273 C.ar    1  UNL1        0.0199
     12 C         139.7212  139.8397  167.3143 C.ar    1  UNL1        0.0014
     13 S         141.9306  140.4184  170.5598 S.O2    1  UNL1        0.0572
     14 N         142.3161  140.7421  171.9728 N.3     1  UNL1       -0.2035
     15 O         140.6594  141.1964  170.7284 O.2     1  UNL1       -0.1532
     16 O         143.2019  139.6404  170.3912 O.2     1  UNL1       -0.1532
     17 H         141.5884  141.3142  172.4012 H       1  UNL1        0.1442
     18 H         143.1977  141.2550  171.9758 H       1  UNL1        0.1442
     19 C         139.2321  138.1529  160.6686 C.3     1  UNL1        0.0437
     20 C         139.7852  138.9653  159.5355 C.3     1  UNL1        0.0768
     21 C         143.0280  138.6078  159.4591 C.3     1  UNL1        0.0173
     22 C         142.0638  138.1327  158.4130 C.3     1  UNL1        0.0576
     23 C         142.4208  137.4098  157.1481 C.3     1  UNL1        0.0174
     24 C         141.1508  137.1273  156.4014 C.3     1  UNL1        0.0187
     25 C         140.0089  137.6756  157.2049 C.3     1  UNL1        0.0721
     26 N         140.5733  138.2970  158.4480 N.3     1  UNL1       -0.2737
@<TRIPOS>BOND
     1    22    21    1
     2    22    23    1
     3    23    24    1
     4    24    25    1
     5    25    26    1
     6    26    20    1
     7    20    19    1
     8    19     1    1
     9     1     2   ar
    10     2     3   ar
    11     3     4   ar
    12     4     7    1
    13     7     8   ar
    14     8     9   ar
    15     9    10   ar
    16    10    13    1
    17    13    14    1
    18    13    15    2
    19    13    16    2
    20    10    11   ar
    21    11    12   ar
    22     4     5   ar
    23     5     6   ar
    24    26    22    1
    25     6     1   ar
    26    12     7   ar
    27    14    17    1
    28    14    18    1
