@<TRIPOS>MOLECULE
*****
 33 36 0 0 0
SMALL
GASTEIGER

@<TRIPOS>ATOM
      1 C         140.6875  140.0619  170.4523 C.3     1  UNL1        0.1459
      2 O         140.6149  140.4220  171.9066 O.3     1  UNL1       -0.3813
      3 H         141.4958  140.3403  172.3043 H       1  UNL1        0.2105
      4 C         139.4503  140.1081  169.6055 C.3     1  UNL1        0.1204
      5 O         137.8069  138.5077  167.6721 O.2     1  UNL1       -0.2701
      6 C         138.7373  139.5697  167.1658 C.2     1  UNL1        0.2475
      7 N         139.5591  140.3699  168.1325 N.am    1  UNL1       -0.2985
      8 H         140.1697  141.0670  167.8002 H       1  UNL1        0.1498
      9 C         138.8461  139.8315  165.6928 C.2     1  UNL1        0.0736
     10 C         138.2383  140.9879  164.9557 C.2     1  UNL1        0.1030
     11 N         138.5983  140.8540  163.5057 N.2     1  UNL1       -0.2477
     12 C         139.4286  139.6149  163.3467 C.2     1  UNL1        0.0635
     13 C         140.0649  138.9803  162.1457 C.3     1  UNL1        0.0717
     14 C         140.8543  137.7139  162.2965 C.2     1  UNL1       -0.0198
     15 C         141.0075  137.0819  163.6483 C.2     1  UNL1       -0.0041
     16 C         140.3711  137.7165  164.8492 C.2     1  UNL1        0.0011
     17 C         139.5817  138.9829  164.6985 C.2     1  UNL1        0.0198
     18 C         141.9974  139.6558  169.8447 C.3     1  UNL1        0.1034
     19 N         142.4326  140.2466  168.5363 N.3     1  UNL1       -0.2704
     20 C         142.5770  139.3692  167.3283 C.3     1  UNL1        0.0759
     21 C         143.0121  139.9600  166.0201 C.3     1  UNL1        0.0609
     22 C         143.3029  141.4281  165.9198 C.3     1  UNL1        0.1687
     23 C         143.1586  142.3055  167.1278 C.3     1  UNL1        0.0609
     24 C         142.7234  141.7147  168.4361 C.3     1  UNL1        0.0759
     25 O         143.7381  142.0188  164.6115 O.3     1  UNL1       -0.4790
     26 C         142.8458  142.9860  163.8914 C.ar    1  UNL1        0.1393
     27 C         142.9289  144.4524  164.1960 C.ar    1  UNL1        0.0378
     28 C         142.0367  145.4197  163.4760 C.ar    1  UNL1        0.0154
     29 C         141.0615  144.9205  162.4515 C.ar    1  UNL1        0.0684
     30 CL        140.1693  145.8878  161.7315 Cl      1  UNL1       -0.0814
     31 C         140.9784  143.4541  162.1470 C.ar    1  UNL1        0.0712
     32 CL        140.0031  142.9550  161.1224 Cl      1  UNL1       -0.0813
     33 C         141.8706  142.4868  162.8669 C.ar    1  UNL1        0.0491
@<TRIPOS>BOND
     1     5     6    2
     2     6     7   am
     3     7     4    1
     4     4     1    1
     5     1     2    1
     6     1    18    1
     7    18    19    1
     8    19    20    1
     9    20    21    1
    10    21    22    1
    11    22    25    1
    12    25    26    1
    13    26    27   ar
    14    27    28   ar
    15    28    29   ar
    16    29    30    1
    17    29    31   ar
    18    31    32    1
    19    31    33   ar
    20    22    23    1
    21    23    24    1
    22     6     9    1
    23     9    10    2
    24    10    11    1
    25    11    12    2
    26    12    13    1
    27    13    14    1
    28    14    15    2
    29    15    16    1
    30    16    17    2
    31    24    19    1
    32    17     9    1
    33    33    26   ar
    34    17    12    1
    35     7     8    1
    36     2     3    1
@<TRIPOS>MOLECULE
*****
 33 36 0 0 0
SMALL
GASTEIGER

@<TRIPOS>ATOM
      1 C         140.5090  139.9772  170.2095 C.3     1  UNL1        0.1459
      2 O         140.3901  140.0909  171.7004 O.3     1  UNL1       -0.3813
      3 H         141.2397  139.8657  172.1107 H       1  UNL1        0.2105
      4 C         139.3252  140.2750  169.3378 C.3     1  UNL1        0.1204
      5 O         137.3992  138.4092  167.9928 O.2     1  UNL1       -0.2701
      6 C         138.4457  139.1171  167.1846 C.2     1  UNL1        0.2475
      7 N         139.4088  140.0501  167.8571 N.am    1  UNL1       -0.2985
      8 H         140.0957  140.5149  167.3266 H       1  UNL1        0.1498
      9 C         138.5293  138.8923  165.7039 C.2     1  UNL1        0.0736
     10 C         138.8846  137.6019  165.0267 C.2     1  UNL1        0.1030
     11 N         138.8472  137.8305  163.5447 N.2     1  UNL1       -0.2477
     12 C         138.4687  139.2622  163.3060 C.2     1  UNL1        0.0635
     13 C         138.2775  140.0531  162.0458 C.3     1  UNL1        0.0717
     14 C         137.8900  141.5002  162.1202 C.2     1  UNL1       -0.0198
     15 C         137.6935  142.1564  163.4546 C.2     1  UNL1       -0.0041
     16 C         137.8846  141.3655  164.7147 C.2     1  UNL1        0.0011
     17 C         138.2722  139.9184  164.6404 C.2     1  UNL1        0.0198
     18 C         141.8118  139.5658  169.5902 C.3     1  UNL1        0.1034
     19 N         142.3233  140.2807  168.3747 N.3     1  UNL1       -0.2704
     20 C         142.4137  139.5591  167.0628 C.3     1  UNL1        0.0759
     21 C         142.9252  140.2740  165.8474 C.3     1  UNL1        0.0609
     22 C         143.3465  141.7104  165.9439 C.3     1  UNL1        0.1687
     23 C         143.2561  142.4320  167.2559 C.3     1  UNL1        0.0609
     24 C         142.7446  141.7171  168.4713 C.3     1  UNL1        0.0759
     25 O         143.8580  142.4253  164.7285 O.3     1  UNL1       -0.4790
     26 C         142.9234  143.2512  163.8952 C.ar    1  UNL1        0.1393
     27 C         143.2782  143.5828  162.4760 C.ar    1  UNL1        0.0378
     28 C         142.3436  144.4087  161.6426 C.ar    1  UNL1        0.0154
     29 C         141.0543  144.9030  162.2285 C.ar    1  UNL1        0.0684
     30 CL        140.1198  145.7289  161.3952 Cl      1  UNL1       -0.0814
     31 C         140.6995  144.5714  163.6477 C.ar    1  UNL1        0.0712
     32 CL        139.4102  145.0657  164.2336 Cl      1  UNL1       -0.0813
     33 C         141.6341  143.7455  164.4811 C.ar    1  UNL1        0.0491
@<TRIPOS>BOND
     1     5     6    2
     2     6     7   am
     3     7     4    1
     4     4     1    1
     5     1     2    1
     6     1    18    1
     7    18    19    1
     8    19    20    1
     9    20    21    1
    10    21    22    1
    11    22    25    1
    12    25    26    1
    13    26    27   ar
    14    27    28   ar
    15    28    29   ar
    16    29    30    1
    17    29    31   ar
    18    31    32    1
    19    31    33   ar
    20    22    23    1
    21    23    24    1
    22     6     9    1
    23     9    10    2
    24    10    11    1
    25    11    12    2
    26    12    13    1
    27    13    14    1
    28    14    15    2
    29    15    16    1
    30    16    17    2
    31    24    19    1
    32    17     9    1
    33    33    26   ar
    34    17    12    1
    35     7     8    1
    36     2     3    1
@<TRIPOS>MOLECULE
*****
 33 36 0 0 0
SMALL
GASTEIGER

@<TRIPOS>ATOM
      1 C         139.8418  145.5811  161.9546 C.3     1  UNL1        0.1459
      2 O         140.3312  146.9225  162.4142 O.3     1  UNL1       -0.3813
      3 H         139.7392  147.2642  163.1025 H       1  UNL1        0.2105
      4 C         140.5878  144.8358  160.8879 C.3     1  UNL1        0.1204
      5 O         142.6926  145.1343  163.0045 O.2     1  UNL1       -0.2701
      6 C         142.5056  143.8162  162.3136 C.2     1  UNL1        0.2475
      7 N         141.4531  143.6669  161.2553 N.am    1  UNL1       -0.2985
      8 H         141.3302  142.8017  160.8018 H       1  UNL1        0.1498
      9 C         143.3709  142.6473  162.6810 C.2     1  UNL1        0.0736
     10 C         144.8518  142.6861  162.9160 C.2     1  UNL1        0.1030
     11 N         145.3033  141.2971  163.2582 N.2     1  UNL1       -0.2477
     12 C         144.1014  140.4000  163.2346 C.2     1  UNL1        0.0635
     13 C         143.9402  138.9311  163.4919 C.3     1  UNL1        0.0717
     14 C         142.5847  138.2966  163.3924 C.2     1  UNL1       -0.0198
     15 C         141.3903  139.1311  163.0357 C.2     1  UNL1       -0.0041
     16 C         141.5515  140.6000  162.7785 C.2     1  UNL1        0.0011
     17 C         142.9071  141.2344  162.8779 C.2     1  UNL1        0.0198
     18 C         138.6064  144.9851  162.5616 C.3     1  UNL1        0.1034
     19 N         138.7030  143.7335  163.3828 N.3     1  UNL1       -0.2704
     20 C         139.5694  143.7048  164.6070 C.3     1  UNL1        0.0759
     21 C         139.6660  142.4532  165.4281 C.3     1  UNL1        0.0609
     22 C         138.8962  141.2305  165.0251 C.3     1  UNL1        0.1687
     23 C         138.0299  141.2593  163.8009 C.3     1  UNL1        0.0609
     24 C         137.9333  142.5108  162.9798 C.3     1  UNL1        0.0759
     25 O         138.9929  139.9790  165.8463 O.3     1  UNL1       -0.4790
     26 C         139.9846  139.8929  166.9685 C.ar    1  UNL1        0.1393
     27 C         141.4349  139.6523  166.6708 C.ar    1  UNL1        0.0378
     28 C         142.4266  139.5662  167.7929 C.ar    1  UNL1        0.0154
     29 C         141.9679  139.7206  169.2126 C.ar    1  UNL1        0.0684
     30 CL        142.9596  139.6345  170.3347 Cl      1  UNL1       -0.0814
     31 C         140.5175  139.9611  169.5103 C.ar    1  UNL1        0.0712
     32 CL        140.0589  140.1155  170.9301 Cl      1  UNL1       -0.0813
     33 C         139.5258  140.0473  168.3882 C.ar    1  UNL1        0.0491
@<TRIPOS>BOND
     1     5     6    2
     2     6     7   am
     3     7     4    1
     4     4     1    1
     5     1     2    1
     6     1    18    1
     7    18    19    1
     8    19    20    1
     9    20    21    1
    10    21    22    1
    11    22    25    1
    12    25    26    1
    13    26    27   ar
    14    27    28   ar
    15    28    29   ar
    16    29    30    1
    17    29    31   ar
    18    31    32    1
    19    31    33   ar
    20    22    23    1
    21    23    24    1
    22     6     9    1
    23     9    10    2
    24    10    11    1
    25    11    12    2
    26    12    13    1
    27    13    14    1
    28    14    15    2
    29    15    16    1
    30    16    17    2
    31    24    19    1
    32    17     9    1
    33    33    26   ar
    34    17    12    1
    35     7     8    1
    36     2     3    1
@<TRIPOS>MOLECULE
*****
 33 36 0 0 0
SMALL
GASTEIGER

@<TRIPOS>ATOM
      1 C         140.7687  140.0546  169.6908 C.3     1  UNL1        0.1459
      2 O         140.7673  139.1966  170.9212 O.3     1  UNL1       -0.3813
      3 H         141.6584  139.1790  171.3041 H       1  UNL1        0.2105
      4 C         139.5033  140.2460  168.9084 C.3     1  UNL1        0.1204
      5 O         137.5811  138.3763  167.5634 O.2     1  UNL1       -0.2701
      6 C         138.5549  139.1688  166.7427 C.2     1  UNL1        0.2475
      7 N         139.5161  140.1037  167.4153 N.am    1  UNL1       -0.2985
      8 H         140.1552  140.6239  166.8766 H       1  UNL1        0.1498
      9 C         138.5676  139.0265  165.2495 C.2     1  UNL1        0.0736
     10 C         138.8797  137.7738  164.4858 C.2     1  UNL1        0.1030
     11 N         138.7755  138.0851  163.0222 N.2     1  UNL1       -0.2477
     12 C         138.3989  139.5302  162.8813 C.2     1  UNL1        0.0635
     13 C         138.1564  140.3915  161.6774 C.3     1  UNL1        0.0717
     14 C         137.7855  141.8345  161.8501 C.2     1  UNL1       -0.0198
     15 C         137.6570  142.4164  163.2266 C.2     1  UNL1       -0.0041
     16 C         137.8995  141.5552  164.4305 C.2     1  UNL1        0.0011
     17 C         138.2705  140.1121  164.2579 C.2     1  UNL1        0.0198
     18 C         142.0355  140.7213  169.2427 C.3     1  UNL1        0.1034
     19 N         142.5741  140.4608  167.8671 N.3     1  UNL1       -0.2704
     20 C         142.8604  139.0556  167.4274 C.3     1  UNL1        0.0759
     21 C         143.3990  138.7952  166.0519 C.3     1  UNL1        0.0609
     22 C         143.6512  139.9400  165.1161 C.3     1  UNL1        0.1687
     23 C         143.3649  141.3452  165.5558 C.3     1  UNL1        0.0609
     24 C         142.8264  141.6056  166.9313 C.3     1  UNL1        0.0759
     25 O         144.1898  139.6795  163.7405 O.3     1  UNL1       -0.4790
     26 C         143.2468  139.4783  162.5915 C.ar    1  UNL1        0.1393
     27 C         142.9077  138.0907  162.1338 C.ar    1  UNL1        0.0378
     28 C         141.9647  137.8894  160.9847 C.ar    1  UNL1        0.0154
     29 C         141.3610  139.0757  160.2934 C.ar    1  UNL1        0.0684
     30 CL        140.4180  138.8744  159.1444 Cl      1  UNL1       -0.0814
     31 C         141.7001  140.4633  160.7511 C.ar    1  UNL1        0.0712
     32 CL        141.0962  141.6497  160.0597 Cl      1  UNL1       -0.0813
     33 C         142.6430  140.6647  161.9001 C.ar    1  UNL1        0.0491
@<TRIPOS>BOND
     1     5     6    2
     2     6     7   am
     3     7     4    1
     4     4     1    1
     5     1     2    1
     6     1    18    1
     7    18    19    1
     8    19    20    1
     9    20    21    1
    10    21    22    1
    11    22    25    1
    12    25    26    1
    13    26    27   ar
    14    27    28   ar
    15    28    29   ar
    16    29    30    1
    17    29    31   ar
    18    31    32    1
    19    31    33   ar
    20    22    23    1
    21    23    24    1
    22     6     9    1
    23     9    10    2
    24    10    11    1
    25    11    12    2
    26    12    13    1
    27    13    14    1
    28    14    15    2
    29    15    16    1
    30    16    17    2
    31    24    19    1
    32    17     9    1
    33    33    26   ar
    34    17    12    1
    35     7     8    1
    36     2     3    1
@<TRIPOS>MOLECULE
*****
 33 36 0 0 0
SMALL
GASTEIGER

@<TRIPOS>ATOM
      1 C         142.2338  140.4284  168.7714 C.3     1  UNL1        0.1459
      2 O         143.0654  139.3588  169.4150 O.3     1  UNL1       -0.3813
      3 H         142.4976  138.6114  169.6600 H       1  UNL1        0.2105
      4 C         142.8789  141.6974  168.2988 C.3     1  UNL1        0.1204
      5 O         143.7488  141.6606  165.4279 O.2     1  UNL1       -0.2701
      6 C         142.6162  142.5454  165.8570 C.2     1  UNL1        0.2475
      7 N         142.1812  142.5638  167.2925 N.am    1  UNL1       -0.2985
      8 H         141.4377  143.1444  167.5742 H       1  UNL1        0.1498
      9 C         141.9184  143.4117  164.8507 C.2     1  UNL1        0.0736
     10 C         142.5633  144.4561  163.9885 C.2     1  UNL1        0.1030
     11 N         141.4967  145.0756  163.1349 N.2     1  UNL1       -0.2477
     12 C         140.1926  144.4142  163.4697 C.2     1  UNL1        0.0635
     13 C         138.8016  144.6155  162.9459 C.3     1  UNL1        0.0717
     14 C         137.6712  143.7884  163.4826 C.2     1  UNL1       -0.0198
     15 C         137.9318  142.7600  164.5430 C.2     1  UNL1       -0.0041
     16 C         139.3229  142.5588  165.0668 C.2     1  UNL1        0.0011
     17 C         140.4533  143.3858  164.5301 C.2     1  UNL1        0.0198
     18 C         140.7569  140.2291  168.6004 C.3     1  UNL1        0.1034
     19 N         140.2230  139.6267  167.3346 N.3     1  UNL1       -0.2704
     20 C         138.7463  139.4253  167.1646 C.3     1  UNL1        0.0759
     21 C         138.2125  138.8229  165.8989 C.3     1  UNL1        0.0609
     22 C         139.1552  138.4220  164.8032 C.3     1  UNL1        0.1687
     23 C         140.6318  138.6235  164.9732 C.3     1  UNL1        0.0609
     24 C         141.1657  139.2259  166.2389 C.3     1  UNL1        0.0759
     25 O         138.6212  137.8197  163.5375 O.3     1  UNL1       -0.4790
     26 C         138.5759  138.6354  162.2794 C.ar    1  UNL1        0.1393
     27 C         137.9068  139.9779  162.2798 C.ar    1  UNL1        0.0378
     28 C         137.8615  140.7936  161.0218 C.ar    1  UNL1        0.0154
     29 C         138.4853  140.2668  159.7636 C.ar    1  UNL1        0.0684
     30 CL        138.4400  141.0826  158.5056 Cl      1  UNL1       -0.0814
     31 C         139.1544  138.9243  159.7632 C.ar    1  UNL1        0.0712
     32 CL        139.7782  138.3976  158.5049 Cl      1  UNL1       -0.0813
     33 C         139.1998  138.1086  161.0212 C.ar    1  UNL1        0.0491
@<TRIPOS>BOND
     1     5     6    2
     2     6     7   am
     3     7     4    1
     4     4     1    1
     5     1     2    1
     6     1    18    1
     7    18    19    1
     8    19    20    1
     9    20    21    1
    10    21    22    1
    11    22    25    1
    12    25    26    1
    13    26    27   ar
    14    27    28   ar
    15    28    29   ar
    16    29    30    1
    17    29    31   ar
    18    31    32    1
    19    31    33   ar
    20    22    23    1
    21    23    24    1
    22     6     9    1
    23     9    10    2
    24    10    11    1
    25    11    12    2
    26    12    13    1
    27    13    14    1
    28    14    15    2
    29    15    16    1
    30    16    17    2
    31    24    19    1
    32    17     9    1
    33    33    26   ar
    34    17    12    1
    35     7     8    1
    36     2     3    1
@<TRIPOS>MOLECULE
*****
 33 36 0 0 0
SMALL
GASTEIGER

@<TRIPOS>ATOM
      1 C         140.8103  141.7918  170.6848 C.3     1  UNL1        0.1459
      2 O         140.3676  142.2689  172.0362 O.3     1  UNL1       -0.3813
      3 H         140.0409  141.5164  172.5537 H       1  UNL1        0.2105
      4 C         141.3603  142.7682  169.6877 C.3     1  UNL1        0.1204
      5 O         142.9678  142.4717  167.1722 O.2     1  UNL1       -0.2701
      6 C         141.5020  142.7802  167.0935 C.2     1  UNL1        0.2475
      7 N         140.6982  142.9285  168.3513 N.am    1  UNL1       -0.2985
      8 H         139.7361  143.1310  168.2997 H       1  UNL1        0.1498
      9 C         140.8400  142.9404  165.7571 C.2     1  UNL1        0.0736
     10 C         139.4416  142.5231  165.4102 C.2     1  UNL1        0.1030
     11 N         139.1975  142.8709  163.9717 N.2     1  UNL1       -0.2477
     12 C         140.4450  143.5031  163.4294 C.2     1  UNL1        0.0635
     13 C         140.7877  144.0453  162.0735 C.3     1  UNL1        0.0717
     14 C         142.1456  144.6303  161.8211 C.2     1  UNL1       -0.0198
     15 C         143.1608  144.6733  162.9245 C.2     1  UNL1       -0.0041
     16 C         142.8180  144.1312  164.2805 C.2     1  UNL1        0.0011
     17 C         141.4601  143.5461  164.5329 C.2     1  UNL1        0.0198
     18 C         140.7031  140.3382  170.3304 C.3     1  UNL1        0.1034
     19 N         141.0796  139.8718  168.9553 N.3     1  UNL1       -0.2704
     20 C         142.5001  139.4961  168.6535 C.3     1  UNL1        0.0759
     21 C         142.8765  139.0297  167.2784 C.3     1  UNL1        0.0609
     22 C         141.8325  138.9389  166.2052 C.3     1  UNL1        0.1687
     23 C         140.4120  139.3146  166.5071 C.3     1  UNL1        0.0609
     24 C         140.0356  139.7810  167.8821 C.3     1  UNL1        0.0759
     25 O         142.2089  138.4725  164.8302 O.3     1  UNL1       -0.4790
     26 C         142.8301  139.4302  163.8571 C.ar    1  UNL1        0.1393
     27 C         142.1413  139.7332  162.5596 C.ar    1  UNL1        0.0378
     28 C         142.7624  140.6910  161.5865 C.ar    1  UNL1        0.0154
     29 C         144.0724  141.3456  161.9110 C.ar    1  UNL1        0.0684
     30 CL        144.6935  142.3034  160.9378 Cl      1  UNL1       -0.0814
     31 C         144.7612  141.0426  163.2085 C.ar    1  UNL1        0.0712
     32 CL        146.0712  141.6973  163.5329 Cl      1  UNL1       -0.0813
     33 C         144.1401  140.0849  164.1816 C.ar    1  UNL1        0.0491
@<TRIPOS>BOND
     1     5     6    2
     2     6     7   am
     3     7     4    1
     4     4     1    1
     5     1     2    1
     6     1    18    1
     7    18    19    1
     8    19    20    1
     9    20    21    1
    10    21    22    1
    11    22    25    1
    12    25    26    1
    13    26    27   ar
    14    27    28   ar
    15    28    29   ar
    16    29    30    1
    17    29    31   ar
    18    31    32    1
    19    31    33   ar
    20    22    23    1
    21    23    24    1
    22     6     9    1
    23     9    10    2
    24    10    11    1
    25    11    12    2
    26    12    13    1
    27    13    14    1
    28    14    15    2
    29    15    16    1
    30    16    17    2
    31    24    19    1
    32    17     9    1
    33    33    26   ar
    34    17    12    1
    35     7     8    1
    36     2     3    1
@<TRIPOS>MOLECULE
*****
 33 36 0 0 0
SMALL
GASTEIGER

@<TRIPOS>ATOM
      1 C         141.4094  139.8125  169.6449 C.3     1  UNL1        0.1459
      2 O         140.9198  138.9913  170.8007 O.3     1  UNL1       -0.3813
      3 H         140.1303  139.4069  171.1813 H       1  UNL1        0.2105
      4 C         142.6257  139.3813  168.8803 C.3     1  UNL1        0.1204
      5 O         144.2933  137.5312  167.2083 O.2     1  UNL1       -0.2701
      6 C         143.5106  138.6316  166.5554 C.2     1  UNL1        0.2475
      7 N         142.6768  139.5568  167.3915 N.am    1  UNL1       -0.2985
      8 H         142.1631  140.2791  166.9630 H       1  UNL1        0.1498
      9 C         143.5618  138.8071  165.0666 C.2     1  UNL1        0.0736
     10 C         144.7148  139.3608  164.2831 C.2     1  UNL1        0.1030
     11 N         144.3344  139.3555  162.8322 N.2     1  UNL1       -0.2477
     12 C         142.9463  138.7986  162.7189 C.2     1  UNL1        0.0635
     13 C         142.0554  138.5564  161.5367 C.3     1  UNL1        0.0717
     14 C         140.6870  137.9752  161.7355 C.2     1  UNL1       -0.0198
     15 C         140.2094  137.6362  163.1164 C.2     1  UNL1       -0.0041
     16 C         141.1003  137.8785  164.2986 C.2     1  UNL1        0.0011
     17 C         142.4687  138.4597  164.0999 C.2     1  UNL1        0.0198
     18 C         140.6825  141.0649  169.2536 C.3     1  UNL1        0.1034
     19 N         140.1424  141.2150  167.8622 N.3     1  UNL1       -0.2704
     20 C         140.4451  142.4520  167.0695 C.3     1  UNL1        0.0759
     21 C         139.9049  142.6020  165.6783 C.3     1  UNL1        0.0609
     22 C         139.0620  141.5151  165.0797 C.3     1  UNL1        0.1687
     23 C         138.7593  140.2782  165.8723 C.3     1  UNL1        0.0609
     24 C         139.2995  140.1282  167.2636 C.3     1  UNL1        0.0759
     25 O         138.5219  141.6653  163.6884 O.3     1  UNL1       -0.4790
     26 C         139.2567  142.5038  162.6849 C.ar    1  UNL1        0.1393
     27 C         140.1769  141.8539  161.6945 C.ar    1  UNL1        0.0378
     28 C         140.9117  142.6924  160.6910 C.ar    1  UNL1        0.0154
     29 C         140.7262  144.1808  160.6779 C.ar    1  UNL1        0.0684
     30 CL        141.4610  145.0193  159.6744 Cl      1  UNL1       -0.0814
     31 C         139.8060  144.8307  161.6683 C.ar    1  UNL1        0.0712
     32 CL        139.6206  146.3191  161.6551 Cl      1  UNL1       -0.0813
     33 C         139.0712  143.9922  162.6718 C.ar    1  UNL1        0.0491
@<TRIPOS>BOND
     1     5     6    2
     2     6     7   am
     3     7     4    1
     4     4     1    1
     5     1     2    1
     6     1    18    1
     7    18    19    1
     8    19    20    1
     9    20    21    1
    10    21    22    1
    11    22    25    1
    12    25    26    1
    13    26    27   ar
    14    27    28   ar
    15    28    29   ar
    16    29    30    1
    17    29    31   ar
    18    31    32    1
    19    31    33   ar
    20    22    23    1
    21    23    24    1
    22     6     9    1
    23     9    10    2
    24    10    11    1
    25    11    12    2
    26    12    13    1
    27    13    14    1
    28    14    15    2
    29    15    16    1
    30    16    17    2
    31    24    19    1
    32    17     9    1
    33    33    26   ar
    34    17    12    1
    35     7     8    1
    36     2     3    1
@<TRIPOS>MOLECULE
*****
 33 36 0 0 0
SMALL
GASTEIGER

@<TRIPOS>ATOM
      1 C         140.3942  138.9905  158.0271 C.3     1  UNL1        0.1459
      2 O         139.4344  138.0655  157.3393 O.3     1  UNL1       -0.3813
      3 H         139.8813  137.2291  157.1354 H       1  UNL1        0.2105
      4 C         139.9456  140.3579  158.4501 C.3     1  UNL1        0.1204
      5 O         137.2867  139.7989  159.7219 O.2     1  UNL1       -0.2701
      6 C         138.4014  140.3810  160.5394 C.2     1  UNL1        0.2475
      7 N         139.7310  140.6605  159.9035 N.am    1  UNL1       -0.2985
      8 H         140.4627  141.0426  160.4400 H       1  UNL1        0.1498
      9 C         138.1868  140.6837  161.9928 C.2     1  UNL1        0.0736
     10 C         137.6829  141.9782  162.5588 C.2     1  UNL1        0.1030
     11 N         137.6231  141.8394  164.0511 N.2     1  UNL1       -0.2477
     12 C         138.0899  140.4592  164.4075 C.2     1  UNL1        0.0635
     13 C         138.2428  139.7606  165.7260 C.3     1  UNL1        0.0717
     14 C         138.7441  138.3476  165.7723 C.2     1  UNL1       -0.0198
     15 C         139.0925  137.6333  164.5002 C.2     1  UNL1       -0.0041
     16 C         138.9396  138.3319  163.1817 C.2     1  UNL1        0.0011
     17 C         138.4383  139.7449  163.1353 C.2     1  UNL1        0.0198
     18 C         141.8028  138.5481  158.2919 C.3     1  UNL1        0.1034
     19 N         142.3956  138.7115  159.6602 N.3     1  UNL1       -0.2704
     20 C         143.5006  139.7004  159.8857 C.3     1  UNL1        0.0759
     21 C         144.0933  139.8638  161.2539 C.3     1  UNL1        0.0609
     22 C         143.5810  139.0382  162.3966 C.3     1  UNL1        0.1687
     23 C         142.4759  138.0492  162.1712 C.3     1  UNL1        0.0609
     24 C         141.8833  137.8859  160.8030 C.3     1  UNL1        0.0759
     25 O         144.1737  139.2016  163.7648 O.3     1  UNL1       -0.4790
     26 C         143.3088  139.6392  164.9096 C.ar    1  UNL1        0.1393
     27 C         143.2963  138.8493  166.1847 C.ar    1  UNL1        0.0378
     28 C         142.4314  139.2867  167.3295 C.ar    1  UNL1        0.0154
     29 C         141.5791  140.5141  167.1992 C.ar    1  UNL1        0.0684
     30 CL        140.7142  140.9516  168.3440 Cl      1  UNL1       -0.0814
     31 C         141.5916  141.3040  165.9241 C.ar    1  UNL1        0.0712
     32 CL        140.7392  142.5314  165.7938 Cl      1  UNL1       -0.0813
     33 C         142.4564  140.8665  164.7793 C.ar    1  UNL1        0.0491
@<TRIPOS>BOND
     1     5     6    2
     2     6     7   am
     3     7     4    1
     4     4     1    1
     5     1     2    1
     6     1    18    1
     7    18    19    1
     8    19    20    1
     9    20    21    1
    10    21    22    1
    11    22    25    1
    12    25    26    1
    13    26    27   ar
    14    27    28   ar
    15    28    29   ar
    16    29    30    1
    17    29    31   ar
    18    31    32    1
    19    31    33   ar
    20    22    23    1
    21    23    24    1
    22     6     9    1
    23     9    10    2
    24    10    11    1
    25    11    12    2
    26    12    13    1
    27    13    14    1
    28    14    15    2
    29    15    16    1
    30    16    17    2
    31    24    19    1
    32    17     9    1
    33    33    26   ar
    34    17    12    1
    35     7     8    1
    36     2     3    1
@<TRIPOS>MOLECULE
*****
 33 36 0 0 0
SMALL
GASTEIGER

@<TRIPOS>ATOM
      1 C         141.2897  139.8542  169.5669 C.3     1  UNL1        0.1459
      2 O         140.9063  139.1240  170.8198 O.3     1  UNL1       -0.3813
      3 H         140.0747  139.4862  171.1636 H       1  UNL1        0.2105
      4 C         142.5451  139.4813  168.8357 C.3     1  UNL1        0.1204
      5 O         144.2183  137.5712  167.2383 O.2     1  UNL1       -0.2701
      6 C         143.4458  138.6532  166.5437 C.2     1  UNL1        0.2475
      7 N         142.6091  139.6083  167.3425 N.am    1  UNL1       -0.2985
      8 H         142.1021  140.3184  166.8866 H       1  UNL1        0.1498
      9 C         143.5098  138.7801  165.0505 C.2     1  UNL1        0.0736
     10 C         144.6691  139.3097  164.2595 C.2     1  UNL1        0.1030
     11 N         144.3015  139.2567  162.8062 N.2     1  UNL1       -0.2477
     12 C         142.9150  138.6944  162.6990 C.2     1  UNL1        0.0635
     13 C         142.0349  138.4125  161.5176 C.3     1  UNL1        0.0717
     14 C         140.6654  137.8360  161.7232 C.2     1  UNL1       -0.0198
     15 C         140.1761  137.5415  163.1102 C.2     1  UNL1       -0.0041
     16 C         141.0563  137.8234  164.2916 C.2     1  UNL1        0.0011
     17 C         142.4257  138.3998  164.0860 C.2     1  UNL1        0.0198
     18 C         140.4176  140.9575  169.0452 C.3     1  UNL1        0.1034
     19 N         139.7476  140.8165  167.7104 N.3     1  UNL1       -0.2704
     20 C         139.8548  141.9175  166.6974 C.3     1  UNL1        0.0759
     21 C         139.1849  141.7765  165.3628 C.3     1  UNL1        0.0609
     22 C         138.4078  140.5344  165.0412 C.3     1  UNL1        0.1687
     23 C         138.3006  139.4334  166.0542 C.3     1  UNL1        0.0609
     24 C         138.9705  139.5745  167.3888 C.3     1  UNL1        0.0759
     25 O         137.7379  140.3934  163.7065 O.3     1  UNL1       -0.4790
     26 C         138.4884  140.7278  162.4515 C.ar    1  UNL1        0.1393
     27 C         139.8606  141.3278  162.5355 C.ar    1  UNL1        0.0378
     28 C         140.6111  141.6622  161.2806 C.ar    1  UNL1        0.0154
     29 C         139.9893  141.3967  159.9416 C.ar    1  UNL1        0.0684
     30 CL        140.7399  141.7311  158.6867 Cl      1  UNL1       -0.0814
     31 C         138.6171  140.7967  159.8576 C.ar    1  UNL1        0.0712
     32 CL        137.9954  140.5312  158.5186 Cl      1  UNL1       -0.0813
     33 C         137.8666  140.4623  161.1125 C.ar    1  UNL1        0.0491
@<TRIPOS>BOND
     1     5     6    2
     2     6     7   am
     3     7     4    1
     4     4     1    1
     5     1     2    1
     6     1    18    1
     7    18    19    1
     8    19    20    1
     9    20    21    1
    10    21    22    1
    11    22    25    1
    12    25    26    1
    13    26    27   ar
    14    27    28   ar
    15    28    29   ar
    16    29    30    1
    17    29    31   ar
    18    31    32    1
    19    31    33   ar
    20    22    23    1
    21    23    24    1
    22     6     9    1
    23     9    10    2
    24    10    11    1
    25    11    12    2
    26    12    13    1
    27    13    14    1
    28    14    15    2
    29    15    16    1
    30    16    17    2
    31    24    19    1
    32    17     9    1
    33    33    26   ar
    34    17    12    1
    35     7     8    1
    36     2     3    1
