@<TRIPOS>MOLECULE
*****
 31 34 0 0 0
SMALL
GASTEIGER

@<TRIPOS>ATOM
      1 N         139.2496  140.1481  166.6861 N.3     1  UNL1       -0.2715
      2 N         139.8079  143.1027  163.3382 N.pl3   1  UNL1       -0.2784
      3 C         141.0026  142.5473  164.0552 C.3     1  UNL1        0.0950
      4 C         140.8165  141.5624  165.1711 C.3     1  UNL1        0.0375
      5 C         139.4357  141.1330  165.5700 C.3     1  UNL1        0.0610
      6 C         138.2411  141.6885  164.8530 C.3     1  UNL1        0.0375
      7 C         138.4272  142.6734  163.7371 C.3     1  UNL1        0.0950
      8 N         141.8505  145.6945  159.2160 N.pl3   1  UNL1       -0.3277
      9 C         140.9329  145.2789  160.3274 C.ar    1  UNL1        0.2131
     10 N         139.6277  145.9276  160.6823 N.ar    1  UNL1       -0.1121
     11 N         139.0475  145.1913  161.8533 N.ar    1  UNL1       -0.1117
     12 C         139.9940  144.0877  162.2221 C.ar    1  UNL1        0.2194
     13 N         141.1592  144.1418  161.2791 N.ar    1  UNL1       -0.2979
     14 H         141.6137  146.4582  158.6416 H       1  UNL1        0.1451
     15 H         142.6897  145.2036  159.0610 H       1  UNL1        0.1451
     16 H         141.9362  143.5372  161.2840 H       1  UNL1        0.1713
     17 C         138.1664  139.1141  166.6010 C.3     1  UNL1        0.0768
     18 C         138.4109  137.8306  165.8640 C.3     1  UNL1        0.0437
     19 C         139.3278  137.8102  164.6771 C.ar    1  UNL1       -0.0207
     20 C         138.7656  137.9408  163.2926 C.ar    1  UNL1       -0.0034
     21 C         139.6825  137.9204  162.1058 C.ar    1  UNL1        0.0111
     22 C         141.1618  137.7694  162.3033 C.ar    1  UNL1        0.0577
     23 CL        142.0788  137.7490  161.1165 Cl      1  UNL1       -0.0822
     24 C         141.7241  137.6389  163.6878 C.ar    1  UNL1        0.0111
     25 C         140.8070  137.6593  164.8747 C.ar    1  UNL1       -0.0034
     26 C         140.1469  140.1973  167.8871 C.3     1  UNL1        0.1019
     27 C         140.0956  141.3756  168.8139 C.3     1  UNL1        0.1312
     28 C         140.7384  142.7105  168.5793 C.3     1  UNL1        0.0336
     29 C         140.4325  143.5859  169.7584 C.3     1  UNL1        0.0346
     30 C         139.6007  142.7920  170.7216 C.3     1  UNL1        0.1422
     31 O         139.3924  141.4260  170.1379 O.3     1  UNL1       -0.3548
@<TRIPOS>BOND
     1     8     9    1
     2     9    10   ar
     3    10    11   ar
     4    11    12   ar
     5    12     2    1
     6     2     3    1
     7     3     4    1
     8     4     5    1
     9     5     1    1
    10     1    17    1
    11    17    18    1
    12    18    19    1
    13    19    20   ar
    14    20    21   ar
    15    21    22   ar
    16    22    23    1
    17    22    24   ar
    18    24    25   ar
    19     1    26    1
    20    26    27    1
    21    27    28    1
    22    28    29    1
    23    29    30    1
    24    30    31    1
    25     5     6    1
    26     6     7    1
    27    12    13   ar
    28    13     9   ar
    29     7     2    1
    30    25    19   ar
    31    31    27    1
    32     8    14    1
    33     8    15    1
    34    13    16    1
@<TRIPOS>MOLECULE
*****
 31 34 0 0 0
SMALL
GASTEIGER

@<TRIPOS>ATOM
      1 N         142.4611  138.3798  164.1087 N.3     1  UNL1       -0.2715
      2 N         141.4656  140.5303  167.9341 N.pl3   1  UNL1       -0.2784
      3 C         142.5360  139.4796  167.9211 C.3     1  UNL1        0.0950
      4 C         142.8678  138.7628  166.6460 C.3     1  UNL1        0.0375
      5 C         142.1292  139.0966  165.3838 C.3     1  UNL1        0.0610
      6 C         141.0588  140.1473  165.3969 C.3     1  UNL1        0.0375
      7 C         140.7269  140.8641  166.6720 C.3     1  UNL1        0.0950
      8 N         138.9368  143.4185  171.5598 N.pl3   1  UNL1       -0.3277
      9 C         139.9714  142.5747  170.8758 C.ar    1  UNL1        0.2131
     10 N         141.2748  142.1258  171.4673 N.ar    1  UNL1       -0.1121
     11 N         141.9931  141.3054  170.4374 N.ar    1  UNL1       -0.1117
     12 C         141.1337  141.2471  169.2093 C.ar    1  UNL1        0.2194
     13 N         139.8842  142.0316  169.4803 N.ar    1  UNL1       -0.2979
     14 H         139.0858  143.7284  172.4822 H       1  UNL1        0.1451
     15 H         138.1089  143.6623  171.0862 H       1  UNL1        0.1451
     16 H         139.1380  142.1664  168.8524 H       1  UNL1        0.1713
     17 C         143.6973  138.7460  163.3422 C.3     1  UNL1        0.0768
     18 C         144.6994  139.6882  163.9409 C.3     1  UNL1        0.0437
     19 C         144.4936  141.1700  163.8324 C.ar    1  UNL1       -0.0207
     20 C         144.5603  141.8404  162.4922 C.ar    1  UNL1       -0.0034
     21 C         144.3545  143.3222  162.3837 C.ar    1  UNL1        0.0111
     22 C         144.0820  144.1338  163.6155 C.ar    1  UNL1        0.0577
     23 CL        143.8762  145.6156  163.5070 Cl      1  UNL1       -0.0822
     24 C         144.0153  143.4634  164.9557 C.ar    1  UNL1        0.0111
     25 C         144.2211  141.9815  165.0642 C.ar    1  UNL1       -0.0034
     26 C         141.5566  137.2966  163.6000 C.3     1  UNL1        0.1019
     27 C         140.3947  137.6430  162.7169 C.3     1  UNL1        0.1312
     28 C         138.9578  137.7210  163.1405 C.3     1  UNL1        0.0336
     29 C         138.1406  138.0984  161.9406 C.3     1  UNL1        0.0346
     30 C         139.0725  138.2536  160.7754 C.3     1  UNL1        0.1422
     31 O         140.4655  137.9722  161.2552 O.3     1  UNL1       -0.3548
@<TRIPOS>BOND
     1     8     9    1
     2     9    10   ar
     3    10    11   ar
     4    11    12   ar
     5    12     2    1
     6     2     3    1
     7     3     4    1
     8     4     5    1
     9     5     1    1
    10     1    17    1
    11    17    18    1
    12    18    19    1
    13    19    20   ar
    14    20    21   ar
    15    21    22   ar
    16    22    23    1
    17    22    24   ar
    18    24    25   ar
    19     1    26    1
    20    26    27    1
    21    27    28    1
    22    28    29    1
    23    29    30    1
    24    30    31    1
    25     5     6    1
    26     6     7    1
    27    12    13   ar
    28    13     9   ar
    29     7     2    1
    30    25    19   ar
    31    31    27    1
    32     8    14    1
    33     8    15    1
    34    13    16    1
@<TRIPOS>MOLECULE
*****
 31 34 0 0 0
SMALL
GASTEIGER

@<TRIPOS>ATOM
      1 N         138.2074  139.8286  163.4949 N.3     1  UNL1       -0.2715
      2 N         139.6753  140.5357  167.6896 N.pl3   1  UNL1       -0.2784
      3 C         140.2173  141.3564  166.5570 C.3     1  UNL1        0.0950
      4 C         139.7280  141.1207  165.1589 C.3     1  UNL1        0.0375
      5 C         138.6967  140.0643  164.8932 C.3     1  UNL1        0.0610
      6 C         138.1548  139.2436  166.0258 C.3     1  UNL1        0.0375
      7 C         138.6441  139.4793  167.4240 C.3     1  UNL1        0.0950
      8 N         142.2906  142.5136  171.8284 N.pl3   1  UNL1       -0.3277
      9 C         141.3667  141.6805  170.9903 C.ar    1  UNL1        0.2131
     10 N         140.4683  140.5876  171.4889 N.ar    1  UNL1       -0.1121
     11 N         139.7254  140.0258  170.3131 N.ar    1  UNL1       -0.1117
     12 C         140.1646  140.7714  169.0879 C.ar    1  UNL1        0.2194
     13 N         141.1790  141.7941  169.5064 N.ar    1  UNL1       -0.2979
     14 H         142.3441  142.3631  172.7999 H       1  UNL1        0.1451
     15 H         142.8434  143.2108  171.4071 H       1  UNL1        0.1451
     16 H         141.6405  142.4285  168.9116 H       1  UNL1        0.1713
     17 C         138.4897  138.5235  162.8116 C.3     1  UNL1        0.0768
     18 C         139.5230  137.5916  163.3719 C.3     1  UNL1        0.0437
     19 C         140.9209  138.0792  163.6129 C.ar    1  UNL1       -0.0207
     20 C         141.5651  137.8775  164.9524 C.ar    1  UNL1       -0.0034
     21 C         142.9630  138.3651  165.1934 C.ar    1  UNL1        0.0111
     22 C         143.7168  139.0544  164.0948 C.ar    1  UNL1        0.0577
     23 CL        145.1146  139.5420  164.3357 Cl      1  UNL1       -0.0822
     24 C         143.0725  139.2561  162.7552 C.ar    1  UNL1        0.0111
     25 C         141.6746  138.7684  162.5143 C.ar    1  UNL1       -0.0034
     26 C         137.4358  140.8980  162.7801 C.3     1  UNL1        0.1019
     27 C         138.0454  142.2532  162.5759 C.3     1  UNL1        0.1312
     28 C         137.6523  143.5133  163.2884 C.3     1  UNL1        0.0336
     29 C         138.5190  144.6252  162.7761 C.3     1  UNL1        0.0346
     30 C         139.4478  144.0523  161.7469 C.3     1  UNL1        0.1422
     31 O         139.1551  142.5863  161.6232 O.3     1  UNL1       -0.3548
@<TRIPOS>BOND
     1     8     9    1
     2     9    10   ar
     3    10    11   ar
     4    11    12   ar
     5    12     2    1
     6     2     3    1
     7     3     4    1
     8     4     5    1
     9     5     1    1
    10     1    17    1
    11    17    18    1
    12    18    19    1
    13    19    20   ar
    14    20    21   ar
    15    21    22   ar
    16    22    23    1
    17    22    24   ar
    18    24    25   ar
    19     1    26    1
    20    26    27    1
    21    27    28    1
    22    28    29    1
    23    29    30    1
    24    30    31    1
    25     5     6    1
    26     6     7    1
    27    12    13   ar
    28    13     9   ar
    29     7     2    1
    30    25    19   ar
    31    31    27    1
    32     8    14    1
    33     8    15    1
    34    13    16    1
@<TRIPOS>MOLECULE
*****
 31 34 0 0 0
SMALL
GASTEIGER

@<TRIPOS>ATOM
      1 N         138.5552  139.5015  164.2330 N.3     1  UNL1       -0.2715
      2 N         140.4515  141.1465  167.9678 N.pl3   1  UNL1       -0.2784
      3 C         140.7548  141.7675  166.6366 C.3     1  UNL1        0.0950
      4 C         140.1228  141.2192  165.3917 C.3     1  UNL1        0.0375
      5 C         139.1873  140.0498  165.4780 C.3     1  UNL1        0.0610
      6 C         138.8840  139.4287  166.8092 C.3     1  UNL1        0.0375
      7 C         139.5160  139.9771  168.0541 C.3     1  UNL1        0.0950
      8 N         143.4815  143.9853  171.2299 N.pl3   1  UNL1       -0.3277
      9 C         142.4763  142.9996  170.7122 C.ar    1  UNL1        0.2131
     10 N         141.6360  142.0773  171.5449 N.ar    1  UNL1       -0.1121
     11 N         140.7753  141.2709  170.6182 N.ar    1  UNL1       -0.1117
     12 C         141.0835  141.6948  169.2128 C.ar    1  UNL1        0.2194
     13 N         142.1348  142.7632  169.2708 N.ar    1  UNL1       -0.2979
     14 H         143.6361  144.0679  172.1986 H       1  UNL1        0.1451
     15 H         143.9865  144.5497  170.6009 H       1  UNL1        0.1451
     16 H         142.5311  143.2277  168.4985 H       1  UNL1        0.1713
     17 C         138.7018  138.0474  163.8954 C.3     1  UNL1        0.0768
     18 C         139.9446  137.5575  163.2129 C.3     1  UNL1        0.0437
     19 C         141.2615  138.2215  163.4859 C.ar    1  UNL1       -0.0207
     20 C         141.8685  139.1331  162.4609 C.ar    1  UNL1       -0.0034
     21 C         143.1855  139.7972  162.7338 C.ar    1  UNL1        0.0111
     22 C         143.8956  139.5497  164.0318 C.ar    1  UNL1        0.0577
     23 CL        145.2126  140.2137  164.3047 Cl      1  UNL1       -0.0822
     24 C         143.2886  138.6381  165.0568 C.ar    1  UNL1        0.0111
     25 C         141.9715  137.9740  164.7838 C.ar    1  UNL1       -0.0034
     26 C         137.7766  140.4073  163.3258 C.3     1  UNL1        0.1019
     27 C         138.0971  140.4581  161.8614 C.3     1  UNL1        0.1312
     28 C         139.1857  141.2704  161.2247 C.3     1  UNL1        0.0336
     29 C         139.1468  141.0199  159.7463 C.3     1  UNL1        0.0346
     30 C         138.0341  140.0527  159.4693 C.3     1  UNL1        0.1422
     31 O         137.3855  139.7056  160.7764 O.3     1  UNL1       -0.3548
@<TRIPOS>BOND
     1     8     9    1
     2     9    10   ar
     3    10    11   ar
     4    11    12   ar
     5    12     2    1
     6     2     3    1
     7     3     4    1
     8     4     5    1
     9     5     1    1
    10     1    17    1
    11    17    18    1
    12    18    19    1
    13    19    20   ar
    14    20    21   ar
    15    21    22   ar
    16    22    23    1
    17    22    24   ar
    18    24    25   ar
    19     1    26    1
    20    26    27    1
    21    27    28    1
    22    28    29    1
    23    29    30    1
    24    30    31    1
    25     5     6    1
    26     6     7    1
    27    12    13   ar
    28    13     9   ar
    29     7     2    1
    30    25    19   ar
    31    31    27    1
    32     8    14    1
    33     8    15    1
    34    13    16    1
@<TRIPOS>MOLECULE
*****
 31 34 0 0 0
SMALL
GASTEIGER

@<TRIPOS>ATOM
      1 N         140.3563  138.0108  164.4411 N.3     1  UNL1       -0.2715
      2 N         141.3689  140.4745  168.0680 N.pl3   1  UNL1       -0.2784
      3 C         139.9494  140.3907  167.5908 C.3     1  UNL1        0.0950
      4 C         139.6118  139.5695  166.3818 C.3     1  UNL1        0.0375
      5 C         140.6939  138.8321  165.6501 C.3     1  UNL1        0.0610
      6 C         142.1134  138.9159  166.1273 C.3     1  UNL1        0.0375
      7 C         142.4510  139.7371  167.3363 C.3     1  UNL1        0.0950
      8 N         143.5374  144.1113  171.2229 N.pl3   1  UNL1       -0.3277
      9 C         142.7032  142.9674  170.7271 C.ar    1  UNL1        0.2131
     10 N         141.7487  142.1516  171.5478 N.ar    1  UNL1       -0.1121
     11 N         141.1327  141.1186  170.6516 N.ar    1  UNL1       -0.1117
     12 C         141.7065  141.2958  169.2770 C.ar    1  UNL1        0.2194
     13 N         142.6772  142.4384  169.3237 N.ar    1  UNL1       -0.2979
     14 H         143.4850  144.3859  172.1668 H       1  UNL1        0.1451
     15 H         144.1373  144.5874  170.6043 H       1  UNL1        0.1451
     16 H         143.2045  142.7811  168.5663 H       1  UNL1        0.1713
     17 C         141.4394  137.2796  163.7049 C.3     1  UNL1        0.0768
     18 C         142.0320  137.8716  162.4605 C.3     1  UNL1        0.0437
     19 C         142.6869  139.2202  162.5100 C.ar    1  UNL1       -0.0207
     20 C         141.8799  140.4561  162.2428 C.ar    1  UNL1       -0.0034
     21 C         142.5348  141.8046  162.2922 C.ar    1  UNL1        0.0111
     22 C         143.9967  141.9174  162.6089 C.ar    1  UNL1        0.0577
     23 CL        144.6516  143.2659  162.6584 Cl      1  UNL1       -0.0822
     24 C         144.8037  140.6815  162.8761 C.ar    1  UNL1        0.0111
     25 C         144.1487  139.3329  162.8266 C.ar    1  UNL1       -0.0034
     26 C         138.9356  137.9209  163.9684 C.3     1  UNL1        0.1019
     27 C         138.4312  138.8715  162.9235 C.3     1  UNL1        0.1312
     28 C         138.1363  138.5331  161.4922 C.3     1  UNL1        0.0336
     29 C         137.6560  139.7799  160.8106 C.3     1  UNL1        0.0346
     30 C         137.6540  140.8890  161.8206 C.3     1  UNL1        0.1422
     31 O         138.1331  140.3275  163.1264 O.3     1  UNL1       -0.3548
@<TRIPOS>BOND
     1     8     9    1
     2     9    10   ar
     3    10    11   ar
     4    11    12   ar
     5    12     2    1
     6     2     3    1
     7     3     4    1
     8     4     5    1
     9     5     1    1
    10     1    17    1
    11    17    18    1
    12    18    19    1
    13    19    20   ar
    14    20    21   ar
    15    21    22   ar
    16    22    23    1
    17    22    24   ar
    18    24    25   ar
    19     1    26    1
    20    26    27    1
    21    27    28    1
    22    28    29    1
    23    29    30    1
    24    30    31    1
    25     5     6    1
    26     6     7    1
    27    12    13   ar
    28    13     9   ar
    29     7     2    1
    30    25    19   ar
    31    31    27    1
    32     8    14    1
    33     8    15    1
    34    13    16    1
@<TRIPOS>MOLECULE
*****
 31 34 0 0 0
SMALL
GASTEIGER

@<TRIPOS>ATOM
      1 N         138.7161  143.6739  163.5069 N.3     1  UNL1       -0.2715
      2 N         140.0498  141.3439  167.1183 N.pl3   1  UNL1       -0.2784
      3 C         139.2752  140.6619  166.0298 C.3     1  UNL1        0.0950
      4 C         138.8306  141.4385  164.8260 C.3     1  UNL1        0.0375
      5 C         139.1607  142.8972  164.7107 C.3     1  UNL1        0.0610
      6 C         139.9353  143.5792  165.7992 C.3     1  UNL1        0.0375
      7 C         140.3798  142.8025  167.0030 C.3     1  UNL1        0.0950
      8 N         143.0744  138.7724  170.5997 N.pl3   1  UNL1       -0.3277
      9 C         141.8846  139.3852  169.9223 C.ar    1  UNL1        0.2131
     10 N         140.4722  139.3588  170.4269 N.ar    1  UNL1       -0.1121
     11 N         139.6130  140.0893  169.4379 N.ar    1  UNL1       -0.1117
     12 C         140.4943  140.5672  168.3221 C.ar    1  UNL1        0.2194
     13 N         141.8982  140.1320  168.6215 N.ar    1  UNL1       -0.2979
     14 H         142.9639  138.2997  171.4562 H       1  UNL1        0.1451
     15 H         143.9658  138.8429  170.1878 H       1  UNL1        0.1451
     16 H         142.6897  140.3060  168.0624 H       1  UNL1        0.1713
     17 C         139.2255  145.0669  163.2829 C.3     1  UNL1        0.0768
     18 C         140.4594  145.2910  162.4599 C.3     1  UNL1        0.0437
     19 C         141.7105  144.5193  162.7585 C.ar    1  UNL1       -0.0207
     20 C         141.9494  143.1935  162.0989 C.ar    1  UNL1       -0.0034
     21 C         143.2005  142.4218  162.3975 C.ar    1  UNL1        0.0111
     22 C         144.2128  142.9760  163.3557 C.ar    1  UNL1        0.0577
     23 CL        145.4639  142.2044  163.6543 Cl      1  UNL1       -0.0822
     24 C         143.9739  144.3019  164.0153 C.ar    1  UNL1        0.0111
     25 C         142.7227  145.0735  163.7166 C.ar    1  UNL1       -0.0034
     26 C         137.7622  143.0576  162.5270 C.3     1  UNL1        0.1019
     27 C         138.2733  142.5014  161.2311 C.3     1  UNL1        0.1312
     28 C         138.5210  141.0530  160.9299 C.3     1  UNL1        0.0336
     29 C         139.0272  140.9524  159.5215 C.3     1  UNL1        0.0346
     30 C         139.0924  142.3387  158.9523 C.3     1  UNL1        0.1422
     31 O         138.6264  143.2960  160.0089 O.3     1  UNL1       -0.3548
@<TRIPOS>BOND
     1     8     9    1
     2     9    10   ar
     3    10    11   ar
     4    11    12   ar
     5    12     2    1
     6     2     3    1
     7     3     4    1
     8     4     5    1
     9     5     1    1
    10     1    17    1
    11    17    18    1
    12    18    19    1
    13    19    20   ar
    14    20    21   ar
    15    21    22   ar
    16    22    23    1
    17    22    24   ar
    18    24    25   ar
    19     1    26    1
    20    26    27    1
    21    27    28    1
    22    28    29    1
    23    29    30    1
    24    30    31    1
    25     5     6    1
    26     6     7    1
    27    12    13   ar
    28    13     9   ar
    29     7     2    1
    30    25    19   ar
    31    31    27    1
    32     8    14    1
    33     8    15    1
    34    13    16    1
@<TRIPOS>MOLECULE
*****
 31 34 0 0 0
SMALL
GASTEIGER

@<TRIPOS>ATOM
      1 N         138.1749  140.9218  162.9432 N.3     1  UNL1       -0.2715
      2 N         139.4367  140.4489  167.2367 N.pl3   1  UNL1       -0.2784
      3 C         138.5402  139.4277  166.6017 C.3     1  UNL1        0.0950
      4 C         138.1196  139.5853  165.1705 C.3     1  UNL1        0.0375
      5 C         138.5955  140.7642  164.3744 C.3     1  UNL1        0.0610
      6 C         139.4921  141.7854  165.0094 C.3     1  UNL1        0.0375
      7 C         139.9126  141.6278  166.4406 C.3     1  UNL1        0.0950
      8 N         142.3489  140.4215  171.6412 N.pl3   1  UNL1       -0.3277
      9 C         141.1959  140.2787  170.6924 C.ar    1  UNL1        0.2131
     10 N         139.8131  139.8189  171.0482 N.ar    1  UNL1       -0.1121
     11 N         138.9858  139.8267  169.7969 N.ar    1  UNL1       -0.1117
     12 C         139.8573  140.2913  168.6679 C.ar    1  UNL1        0.2194
     13 N         141.2232  140.5707  169.2213 N.ar    1  UNL1       -0.2979
     14 H         142.2320  140.2042  172.5942 H       1  UNL1        0.1451
     15 H         143.2227  140.7324  171.3108 H       1  UNL1        0.1451
     16 H         142.0010  140.8897  168.7090 H       1  UNL1        0.1713
     17 C         138.3122  139.7717  161.9901 C.3     1  UNL1        0.0768
     18 C         139.6740  139.3114  161.5614 C.3     1  UNL1        0.0437
     19 C         140.7582  139.1250  162.5811 C.ar    1  UNL1       -0.0207
     20 C         140.7682  137.9026  163.4503 C.ar    1  UNL1       -0.0034
     21 C         141.8524  137.7162  164.4700 C.ar    1  UNL1        0.0111
     22 C         142.9266  138.7523  164.6205 C.ar    1  UNL1        0.0577
     23 CL        144.0108  138.5660  165.6402 Cl      1  UNL1       -0.0822
     24 C         142.9166  139.9748  163.7512 C.ar    1  UNL1        0.0111
     25 C         141.8324  140.1611  162.7315 C.ar    1  UNL1       -0.0034
     26 C         137.6170  142.2295  162.4651 C.3     1  UNL1        0.1019
     27 C         138.5375  143.3803  162.1854 C.3     1  UNL1        0.1312
     28 C         139.8935  143.2905  161.5503 C.3     1  UNL1        0.0336
     29 C         140.4578  144.6776  161.4640 C.3     1  UNL1        0.0346
     30 C         139.4504  145.6247  162.0458 C.3     1  UNL1        0.1422
     31 O         138.2637  144.8229  162.4916 O.3     1  UNL1       -0.3548
@<TRIPOS>BOND
     1     8     9    1
     2     9    10   ar
     3    10    11   ar
     4    11    12   ar
     5    12     2    1
     6     2     3    1
     7     3     4    1
     8     4     5    1
     9     5     1    1
    10     1    17    1
    11    17    18    1
    12    18    19    1
    13    19    20   ar
    14    20    21   ar
    15    21    22   ar
    16    22    23    1
    17    22    24   ar
    18    24    25   ar
    19     1    26    1
    20    26    27    1
    21    27    28    1
    22    28    29    1
    23    29    30    1
    24    30    31    1
    25     5     6    1
    26     6     7    1
    27    12    13   ar
    28    13     9   ar
    29     7     2    1
    30    25    19   ar
    31    31    27    1
    32     8    14    1
    33     8    15    1
    34    13    16    1
@<TRIPOS>MOLECULE
*****
 31 34 0 0 0
SMALL
GASTEIGER

@<TRIPOS>ATOM
      1 N         138.6628  139.1545  163.3830 N.3     1  UNL1       -0.2715
      2 N         139.8574  140.1648  167.6023 N.pl3   1  UNL1       -0.2784
      3 C         140.7583  140.5300  166.4599 C.3     1  UNL1        0.0950
      4 C         140.3600  140.1932  165.0535 C.3     1  UNL1        0.0375
      5 C         139.0610  139.4912  164.7895 C.3     1  UNL1        0.0610
      6 C         138.1602  139.1260  165.9319 C.3     1  UNL1        0.0375
      7 C         138.5584  139.4628  167.3383 C.3     1  UNL1        0.0950
      8 N         142.2312  142.4155  171.7473 N.pl3   1  UNL1       -0.3277
      9 C         141.3467  141.5361  170.9140 C.ar    1  UNL1        0.2131
     10 N         140.3900  140.5034  171.4321 N.ar    1  UNL1       -0.1121
     11 N         139.7157  139.8641  170.2546 N.ar    1  UNL1       -0.1117
     12 C         140.2557  140.5016  169.0087 C.ar    1  UNL1        0.2194
     13 N         141.2637  141.5349  169.4163 N.ar    1  UNL1       -0.2979
     14 H         142.2146  142.3417  172.7289 H       1  UNL1        0.1451
     15 H         142.8283  143.0664  171.3126 H       1  UNL1        0.1451
     16 H         141.7801  142.1112  168.8076 H       1  UNL1        0.1713
     17 C         137.7231  140.0523  162.6342 C.3     1  UNL1        0.0768
     18 C         137.3924  141.4113  163.1763 C.3     1  UNL1        0.0437
     19 C         138.4672  142.4498  163.3037 C.ar    1  UNL1       -0.0207
     20 C         139.5343  142.5574  162.2549 C.ar    1  UNL1       -0.0034
     21 C         140.6091  143.5959  162.3823 C.ar    1  UNL1        0.0111
     22 C         140.6169  144.5268  163.5586 C.ar    1  UNL1        0.0577
     23 CL        141.6918  145.5653  163.6860 Cl      1  UNL1       -0.0822
     24 C         139.5499  144.4192  164.6073 C.ar    1  UNL1        0.0111
     25 C         138.4750  143.3807  164.4798 C.ar    1  UNL1       -0.0034
     26 C         139.2043  137.9198  162.7255 C.3     1  UNL1        0.1019
     27 C         140.5146  137.9713  161.9971 C.3     1  UNL1        0.1312
     28 C         141.8701  137.7639  162.6051 C.3     1  UNL1        0.0336
     29 C         142.8926  137.9036  161.5166 C.3     1  UNL1        0.0346
     30 C         142.1690  138.1973  160.2358 C.3     1  UNL1        0.1422
     31 O         140.6993  138.2391  160.5328 O.3     1  UNL1       -0.3548
@<TRIPOS>BOND
     1     8     9    1
     2     9    10   ar
     3    10    11   ar
     4    11    12   ar
     5    12     2    1
     6     2     3    1
     7     3     4    1
     8     4     5    1
     9     5     1    1
    10     1    17    1
    11    17    18    1
    12    18    19    1
    13    19    20   ar
    14    20    21   ar
    15    21    22   ar
    16    22    23    1
    17    22    24   ar
    18    24    25   ar
    19     1    26    1
    20    26    27    1
    21    27    28    1
    22    28    29    1
    23    29    30    1
    24    30    31    1
    25     5     6    1
    26     6     7    1
    27    12    13   ar
    28    13     9   ar
    29     7     2    1
    30    25    19   ar
    31    31    27    1
    32     8    14    1
    33     8    15    1
    34    13    16    1
@<TRIPOS>MOLECULE
*****
 31 34 0 0 0
SMALL
GASTEIGER

@<TRIPOS>ATOM
      1 N         144.5185  140.7848  164.3647 N.3     1  UNL1       -0.2715
      2 N         141.3897  140.8489  167.5983 N.pl3   1  UNL1       -0.2784
      3 C         141.9101  142.1369  167.0327 C.3     1  UNL1        0.0950
      4 C         142.9531  142.1156  165.9548 C.3     1  UNL1        0.0375
      5 C         143.4755  140.8061  165.4426 C.3     1  UNL1        0.0610
      6 C         142.9550  139.5180  166.0082 C.3     1  UNL1        0.0375
      7 C         141.9121  139.5394  167.0860 C.3     1  UNL1        0.0950
      8 N         137.3630  139.4584  170.7182 N.pl3   1  UNL1       -0.3277
      9 C         138.4959  140.2311  170.1103 C.ar    1  UNL1        0.2131
     10 N         138.9877  141.5751  170.5596 N.ar    1  UNL1       -0.1121
     11 N         140.1316  141.9701  169.6732 N.ar    1  UNL1       -0.1117
     12 C         140.3467  140.8702  168.6762 C.ar    1  UNL1        0.2194
     13 N         139.3358  139.7955  168.9463 N.ar    1  UNL1       -0.2979
     14 H         136.8690  139.8300  171.4845 H       1  UNL1        0.1451
     15 H         137.1135  138.5797  170.3510 H       1  UNL1        0.1451
     16 H         139.2403  138.9522  168.4473 H       1  UNL1        0.1713
     17 C         145.2504  142.0435  164.0042 C.3     1  UNL1        0.0768
     18 C         144.8169  142.8488  162.8152 C.3     1  UNL1        0.0437
     19 C         143.4495  143.4645  162.7845 C.ar    1  UNL1       -0.0207
     20 C         143.2144  144.8014  163.4228 C.ar    1  UNL1       -0.0034
     21 C         141.8470  145.4171  163.3921 C.ar    1  UNL1        0.0111
     22 C         140.7146  144.6959  162.7230 C.ar    1  UNL1        0.0577
     23 CL        139.3471  145.3116  162.6923 Cl      1  UNL1       -0.0822
     24 C         140.9497  143.3590  162.0847 C.ar    1  UNL1        0.0111
     25 C         142.3172  142.7433  162.1154 C.ar    1  UNL1       -0.0034
     26 C         144.8295  139.5047  163.6472 C.3     1  UNL1        0.1019
     27 C         143.9522  139.0437  162.5213 C.3     1  UNL1        0.1312
     28 C         144.0275  139.5095  161.0974 C.3     1  UNL1        0.0336
     29 C         142.9674  138.7897  160.3175 C.3     1  UNL1        0.0346
     30 C         142.2370  137.8791  161.2595 C.3     1  UNL1        0.1422
     31 O         142.8456  138.0361  162.6215 O.3     1  UNL1       -0.3548
@<TRIPOS>BOND
     1     8     9    1
     2     9    10   ar
     3    10    11   ar
     4    11    12   ar
     5    12     2    1
     6     2     3    1
     7     3     4    1
     8     4     5    1
     9     5     1    1
    10     1    17    1
    11    17    18    1
    12    18    19    1
    13    19    20   ar
    14    20    21   ar
    15    21    22   ar
    16    22    23    1
    17    22    24   ar
    18    24    25   ar
    19     1    26    1
    20    26    27    1
    21    27    28    1
    22    28    29    1
    23    29    30    1
    24    30    31    1
    25     5     6    1
    26     6     7    1
    27    12    13   ar
    28    13     9   ar
    29     7     2    1
    30    25    19   ar
    31    31    27    1
    32     8    14    1
    33     8    15    1
    34    13    16    1
