@<TRIPOS>MOLECULE
*****
 30 33 0 0 0
SMALL
GASTEIGER

@<TRIPOS>ATOM
      1 C         139.3641  139.1621  165.5383 C.2     1  UNL1        0.2685
      2 O         138.4327  138.7132  166.6250 O.2     1  UNL1       -0.2682
      3 N         140.6581  139.8344  165.8899 N.am    1  UNL1       -0.2723
      4 C         141.0206  140.0579  167.3281 C.3     1  UNL1        0.0761
      5 C         142.2631  139.5675  168.0107 C.3     1  UNL1        0.0213
      6 C         142.2147  140.0175  169.4408 C.3     1  UNL1        0.0188
      7 C         142.9527  139.9925  170.7465 C.3     1  UNL1        0.0686
      8 N         142.1364  140.7455  171.7547 N.3     1  UNL1       -0.2975
      9 C         140.8939  141.2359  171.0722 C.3     1  UNL1        0.0686
     10 C         140.9423  140.7859  169.6421 C.3     1  UNL1        0.0188
     11 C         140.2043  140.8109  168.3365 C.3     1  UNL1        0.0213
     12 H         142.6711  141.5376  172.1110 H       1  UNL1        0.1232
     13 C         137.4148  139.8702  160.6825 C.3     1  UNL1        0.1321
     14 N         138.1055  139.2641  161.8681 N.ar    1  UNL1       -0.3057
     15 C         138.7815  137.9257  161.9056 C.ar    1  UNL1        0.1787
     16 N         139.3352  137.7245  163.2850 N.ar    1  UNL1       -0.2192
     17 C         139.0015  138.9386  164.1000 C.ar    1  UNL1        0.1535
     18 C         138.2415  139.8902  163.2243 C.ar    1  UNL1        0.1012
     19 C         141.5895  140.2834  164.8031 C.3     1  UNL1        0.1205
     20 C         141.7992  141.7473  164.5525 C.ar    1  UNL1        0.0007
     21 C         143.1894  142.3089  164.5073 C.ar    1  UNL1       -0.0024
     22 C         143.3991  143.7729  164.2566 C.ar    1  UNL1        0.0028
     23 C         142.2186  144.6752  164.0513 C.ar    1  UNL1        0.0372
     24 C         140.8285  144.1137  164.0966 C.ar    1  UNL1        0.1465
     25 C         140.6188  142.6497  164.3472 C.ar    1  UNL1        0.0346
     26 O         139.6480  145.0161  163.8913 O.3     1  UNL1       -0.4045
     27 C         138.3409  144.7044  164.5578 C.3     1  UNL1        0.5753
     28 F         137.0337  144.3926  165.2244 F       1  UNL1       -0.1328
     29 F         138.9116  145.1324  165.8773 F       1  UNL1       -0.1328
     30 F         137.7700  144.2763  163.2384 F       1  UNL1       -0.1328
@<TRIPOS>BOND
     1    13    14    1
     2    14    15   ar
     3    15    16   ar
     4    16    17   ar
     5    17     1    1
     6     1     2    2
     7     1     3   am
     8     3    19    1
     9    19    20    1
    10    20    21   ar
    11    21    22   ar
    12    22    23   ar
    13    23    24   ar
    14    24    26    1
    15    26    27    1
    16    27    28    1
    17    27    29    1
    18    27    30    1
    19    24    25   ar
    20     4     3    1
    21     4     5    1
    22     6     5    1
    23     6     7    1
    24     7     8    1
    25     8     9    1
    26    10     9    1
    27    10    11    1
    28    17    18   ar
    29    18    14   ar
    30    25    20   ar
    31    11     4    1
    32    10     6    1
    33     8    12    1
@<TRIPOS>MOLECULE
*****
 30 33 0 0 0
SMALL
GASTEIGER

@<TRIPOS>ATOM
      1 C         140.3759  139.3663  165.3634 C.2     1  UNL1        0.2685
      2 O         139.2501  138.7952  166.1736 O.2     1  UNL1       -0.2682
      3 N         141.2970  140.3824  165.9709 N.am    1  UNL1       -0.2723
      4 C         141.0923  140.8274  167.3886 C.3     1  UNL1        0.0761
      5 C         140.3262  142.0389  167.8306 C.3     1  UNL1        0.0213
      6 C         140.3782  142.0993  169.3285 C.3     1  UNL1        0.0188
      7 C         139.9369  142.8854  170.5273 C.3     1  UNL1        0.0686
      8 N         140.4624  142.1971  171.7520 N.3     1  UNL1       -0.2975
      9 C         141.2285  140.9855  171.3101 C.3     1  UNL1        0.0686
     10 C         141.1765  140.9251  169.8123 C.3     1  UNL1        0.0188
     11 C         141.6178  140.1390  168.6134 C.3     1  UNL1        0.0213
     12 H         139.6862  141.9162  172.3512 H       1  UNL1        0.1232
     13 C         139.8397  138.8459  160.1363 C.3     1  UNL1        0.1321
     14 N         140.3341  138.6820  161.5430 N.ar    1  UNL1       -0.3057
     15 C         141.4566  137.7907  161.9848 C.ar    1  UNL1        0.1787
     16 N         141.6090  137.9385  163.4697 N.ar    1  UNL1       -0.2192
     17 C         140.5806  138.9212  163.9456 C.ar    1  UNL1        0.1535
     18 C         139.7926  139.3807  162.7548 C.ar    1  UNL1        0.1012
     19 C         142.4228  140.9534  165.1606 C.3     1  UNL1        0.1205
     20 C         142.3716  142.3827  164.7084 C.ar    1  UNL1        0.0007
     21 C         143.6353  143.1853  164.6142 C.ar    1  UNL1       -0.0024
     22 C         143.5840  144.6147  164.1620 C.ar    1  UNL1        0.0028
     23 C         142.2690  145.2412  163.8041 C.ar    1  UNL1        0.0372
     24 C         141.0054  144.4387  163.8983 C.ar    1  UNL1        0.1465
     25 C         141.0566  143.0094  164.3505 C.ar    1  UNL1        0.0346
     26 O         139.6903  145.0653  163.5403 O.3     1  UNL1       -0.4045
     27 C         138.4465  144.6736  164.2815 C.3     1  UNL1        0.5753
     28 F         137.2026  144.2819  165.0228 F       1  UNL1       -0.1328
     29 F         137.9051  144.0363  163.0363 F       1  UNL1       -0.1328
     30 F         138.9878  145.3109  165.5268 F       1  UNL1       -0.1328
@<TRIPOS>BOND
     1    13    14    1
     2    14    15   ar
     3    15    16   ar
     4    16    17   ar
     5    17     1    1
     6     1     2    2
     7     1     3   am
     8     3    19    1
     9    19    20    1
    10    20    21   ar
    11    21    22   ar
    12    22    23   ar
    13    23    24   ar
    14    24    26    1
    15    26    27    1
    16    27    28    1
    17    27    29    1
    18    27    30    1
    19    24    25   ar
    20     4     3    1
    21     4     5    1
    22     6     5    1
    23     6     7    1
    24     7     8    1
    25     8     9    1
    26    10     9    1
    27    10    11    1
    28    17    18   ar
    29    18    14   ar
    30    25    20   ar
    31    11     4    1
    32    10     6    1
    33     8    12    1
@<TRIPOS>MOLECULE
*****
 30 33 0 0 0
SMALL
GASTEIGER

@<TRIPOS>ATOM
      1 C         142.4340  140.4510  165.1551 C.2     1  UNL1        0.2685
      2 O         143.2956  141.5729  165.6542 O.2     1  UNL1       -0.2682
      3 N         141.3486  139.8937  166.0275 N.am    1  UNL1       -0.2723
      4 C         141.1246  140.4582  167.3990 C.3     1  UNL1        0.0761
      5 C         140.3548  141.7037  167.7250 C.3     1  UNL1        0.0213
      6 C         140.3856  141.8916  169.2128 C.3     1  UNL1        0.0188
      7 C         139.9288  142.7775  170.3338 C.3     1  UNL1        0.0686
      8 N         140.4354  142.1957  171.6202 N.3     1  UNL1       -0.2975
      9 C         141.2052  140.9502  171.2943 C.3     1  UNL1        0.0686
     10 C         141.1744  140.7623  169.8065 C.3     1  UNL1        0.0188
     11 C         141.6312  139.8764  168.6855 C.3     1  UNL1        0.0213
     12 H         139.6501  141.9676  172.2299 H       1  UNL1        0.1232
     13 C         142.4773  139.8772  159.9064 C.3     1  UNL1        0.1321
     14 N         142.6779  139.6227  161.3710 N.ar    1  UNL1       -0.3057
     15 C         143.3274  138.4131  161.9749 C.ar    1  UNL1        0.1787
     16 N         143.3151  138.5761  163.4659 N.ar    1  UNL1       -0.2192
     17 C         142.6580  139.8865  163.7835 C.ar    1  UNL1        0.1535
     18 C         142.2642  140.5334  162.4888 C.ar    1  UNL1        0.1012
     19 C         140.4871  138.7717  165.5284 C.3     1  UNL1        0.1205
     20 C         139.5745  138.9905  164.3582 C.ar    1  UNL1        0.0007
     21 C         139.5121  137.9753  163.2557 C.ar    1  UNL1       -0.0024
     22 C         138.5994  138.1941  162.0854 C.ar    1  UNL1        0.0028
     23 C         137.7493  139.4281  162.0179 C.ar    1  UNL1        0.0372
     24 C         137.8117  140.4432  163.1203 C.ar    1  UNL1        0.1465
     25 C         138.7243  140.2244  164.2905 C.ar    1  UNL1        0.0346
     26 O         136.9616  141.6772  163.0527 O.3     1  UNL1       -0.4045
     27 C         137.6063  143.0267  162.9387 C.3     1  UNL1        0.5753
     28 F         138.2511  144.3764  162.8247 F       1  UNL1       -0.1328
     29 F         137.7483  142.8338  161.4580 F       1  UNL1       -0.1328
     30 F         137.4644  143.2197  164.4194 F       1  UNL1       -0.1328
@<TRIPOS>BOND
     1    13    14    1
     2    14    15   ar
     3    15    16   ar
     4    16    17   ar
     5    17     1    1
     6     1     2    2
     7     1     3   am
     8     3    19    1
     9    19    20    1
    10    20    21   ar
    11    21    22   ar
    12    22    23   ar
    13    23    24   ar
    14    24    26    1
    15    26    27    1
    16    27    28    1
    17    27    29    1
    18    27    30    1
    19    24    25   ar
    20     4     3    1
    21     4     5    1
    22     6     5    1
    23     6     7    1
    24     7     8    1
    25     8     9    1
    26    10     9    1
    27    10    11    1
    28    17    18   ar
    29    18    14   ar
    30    25    20   ar
    31    11     4    1
    32    10     6    1
    33     8    12    1
@<TRIPOS>MOLECULE
*****
 30 33 0 0 0
SMALL
GASTEIGER

@<TRIPOS>ATOM
      1 C         138.9635  141.0730  164.3138 C.2     1  UNL1        0.2685
      2 O         137.9726  142.0949  164.7868 O.2     1  UNL1       -0.2682
      3 N         140.0534  140.6041  165.2316 N.am    1  UNL1       -0.2723
      4 C         140.1523  141.1571  166.6223 C.3     1  UNL1        0.0761
      5 C         139.8939  140.4014  167.8921 C.3     1  UNL1        0.0213
      6 C         140.1089  141.3402  169.0421 C.3     1  UNL1        0.0188
      7 C         140.0820  141.4533  170.5376 C.3     1  UNL1        0.0686
      8 N         140.4568  142.8590  170.9029 N.3     1  UNL1       -0.2975
      9 C         140.7152  143.6147  169.6332 C.3     1  UNL1        0.0686
     10 C         140.5002  142.6760  168.4831 C.3     1  UNL1        0.0188
     11 C         140.5270  142.5629  166.9877 C.3     1  UNL1        0.0213
     12 H         141.2977  142.8542  171.4801 H       1  UNL1        0.1232
     13 C         139.6654  140.3686  159.1281 C.3     1  UNL1        0.1321
     14 N         139.1871  140.1963  160.5393 N.ar    1  UNL1       -0.3057
     15 C         138.2374  139.1422  161.0259 C.ar    1  UNL1        0.1787
     16 N         138.0380  139.3423  162.4991 N.ar    1  UNL1       -0.2192
     17 C         138.8645  140.5200  162.9229 C.ar    1  UNL1        0.1535
     18 C         139.5748  141.0479  161.7117 C.ar    1  UNL1        0.1012
     19 C         141.0443  139.5822  164.7584 C.3     1  UNL1        0.1205
     20 C         142.4596  139.9871  164.4703 C.ar    1  UNL1        0.0007
     21 C         143.5849  139.0387  164.7603 C.ar    1  UNL1       -0.0024
     22 C         145.0002  139.4437  164.4721 C.ar    1  UNL1        0.0028
     23 C         145.2900  140.7971  163.8940 C.ar    1  UNL1        0.0372
     24 C         144.1647  141.7455  163.6041 C.ar    1  UNL1        0.1465
     25 C         142.7495  141.3406  163.8922 C.ar    1  UNL1        0.0346
     26 O         144.4546  143.0990  163.0260 O.3     1  UNL1       -0.4045
     27 C         143.9494  144.3323  163.7143 C.3     1  UNL1        0.5753
     28 F         143.4442  145.5657  164.4026 F       1  UNL1       -0.1328
     29 F         144.6084  143.8916  164.9876 F       1  UNL1       -0.1328
     30 F         143.2903  144.7731  162.4410 F       1  UNL1       -0.1328
@<TRIPOS>BOND
     1    13    14    1
     2    14    15   ar
     3    15    16   ar
     4    16    17   ar
     5    17     1    1
     6     1     2    2
     7     1     3   am
     8     3    19    1
     9    19    20    1
    10    20    21   ar
    11    21    22   ar
    12    22    23   ar
    13    23    24   ar
    14    24    26    1
    15    26    27    1
    16    27    28    1
    17    27    29    1
    18    27    30    1
    19    24    25   ar
    20     4     3    1
    21     4     5    1
    22     6     5    1
    23     6     7    1
    24     7     8    1
    25     8     9    1
    26    10     9    1
    27    10    11    1
    28    17    18   ar
    29    18    14   ar
    30    25    20   ar
    31    11     4    1
    32    10     6    1
    33     8    12    1
@<TRIPOS>MOLECULE
*****
 30 33 0 0 0
SMALL
GASTEIGER

@<TRIPOS>ATOM
      1 C         143.2556  141.9014  165.3778 C.2     1  UNL1        0.2685
      2 O         144.0066  142.8943  166.2145 O.2     1  UNL1       -0.2682
      3 N         142.1021  141.1447  165.9666 N.am    1  UNL1       -0.2723
      4 C         141.6995  141.3808  167.3920 C.3     1  UNL1        0.0761
      5 C         142.2590  140.6792  168.5940 C.3     1  UNL1        0.0213
      6 C         141.5721  141.2248  169.8108 C.3     1  UNL1        0.0188
      7 C         141.4933  141.1283  171.3056 C.3     1  UNL1        0.0686
      8 N         140.4606  142.1075  171.7794 N.3     1  UNL1       -0.2975
      9 C         139.9010  142.8091  170.5775 C.3     1  UNL1        0.0686
     10 C         140.5880  142.2636  169.3608 C.3     1  UNL1        0.0188
     11 C         140.6667  142.3600  167.8660 C.3     1  UNL1        0.0213
     12 H         140.8900  142.7865  172.4079 H       1  UNL1        0.1232
     13 C         143.8590  142.4951  160.1659 C.3     1  UNL1        0.1321
     14 N         143.9356  141.9382  161.5566 N.ar    1  UNL1       -0.3057
     15 C         144.6199  140.6661  161.9605 C.ar    1  UNL1        0.1787
     16 N         144.4485  140.4974  163.4411 N.ar    1  UNL1       -0.2192
     17 C         143.6582  141.6653  163.9522 C.ar    1  UNL1        0.1535
     18 C         143.3412  142.5559  162.7875 C.ar    1  UNL1        0.1012
     19 C         141.3511  140.1518  165.1297 C.3     1  UNL1        0.1205
     20 C         140.1006  140.5682  164.4136 C.ar    1  UNL1        0.0007
     21 C         139.2538  139.5402  163.7235 C.ar    1  UNL1       -0.0024
     22 C         138.0032  139.9566  163.0073 C.ar    1  UNL1        0.0028
     23 C         137.5995  141.4011  162.9815 C.ar    1  UNL1        0.0372
     24 C         138.4462  142.4290  163.6717 C.ar    1  UNL1        0.1465
     25 C         139.6968  142.0126  164.3878 C.ar    1  UNL1        0.0346
     26 O         138.0425  143.8734  163.6458 O.3     1  UNL1       -0.4045
     27 C         138.2308  144.7267  164.8650 C.3     1  UNL1        0.5753
     28 F         138.4191  145.5799  166.0843 F       1  UNL1       -0.1328
     29 F         136.9137  144.2502  165.4019 F       1  UNL1       -0.1328
     30 F         139.5479  145.2031  164.3283 F       1  UNL1       -0.1328
@<TRIPOS>BOND
     1    13    14    1
     2    14    15   ar
     3    15    16   ar
     4    16    17   ar
     5    17     1    1
     6     1     2    2
     7     1     3   am
     8     3    19    1
     9    19    20    1
    10    20    21   ar
    11    21    22   ar
    12    22    23   ar
    13    23    24   ar
    14    24    26    1
    15    26    27    1
    16    27    28    1
    17    27    29    1
    18    27    30    1
    19    24    25   ar
    20     4     3    1
    21     4     5    1
    22     6     5    1
    23     6     7    1
    24     7     8    1
    25     8     9    1
    26    10     9    1
    27    10    11    1
    28    17    18   ar
    29    18    14   ar
    30    25    20   ar
    31    11     4    1
    32    10     6    1
    33     8    12    1
@<TRIPOS>MOLECULE
*****
 30 33 0 0 0
SMALL
GASTEIGER

@<TRIPOS>ATOM
      1 C         140.0908  139.9815  165.2683 C.2     1  UNL1        0.2685
      2 O         140.3324  138.8476  166.2202 O.2     1  UNL1       -0.2682
      3 N         140.3743  141.3915  165.6942 N.am    1  UNL1       -0.2723
      4 C         140.8994  141.6678  167.0717 C.3     1  UNL1        0.0761
      5 C         140.1224  141.5574  168.3501 C.3     1  UNL1        0.0213
      6 C         141.0365  141.9243  169.4814 C.3     1  UNL1        0.0188
      7 C         141.1212  142.0829  170.9705 C.3     1  UNL1        0.0686
      8 N         142.5156  142.5180  171.3117 N.3     1  UNL1       -0.2975
      9 C         143.2927  142.6283  170.0334 C.3     1  UNL1        0.0686
     10 C         142.3785  142.2614  168.9022 C.3     1  UNL1        0.0188
     11 C         142.2938  142.1028  167.4130 C.3     1  UNL1        0.0213
     12 H         142.9529  141.8295  171.9243 H       1  UNL1        0.1232
     13 C         139.8430  138.6986  160.1523 C.3     1  UNL1        0.1321
     14 N         139.4518  139.1155  161.5391 N.ar    1  UNL1       -0.3057
     15 C         138.0636  139.4443  162.0023 C.ar    1  UNL1        0.1787
     16 N         138.1339  139.8088  163.4556 N.ar    1  UNL1       -0.2192
     17 C         139.5656  139.7051  163.8907 C.ar    1  UNL1        0.1535
     18 C         140.3802  139.2767  162.7062 C.ar    1  UNL1        0.1012
     19 C         140.1326  142.5254  164.7423 C.3     1  UNL1        0.1205
     20 C         141.2922  143.2951  164.1829 C.ar    1  UNL1        0.0007
     21 C         141.2320  144.7919  164.1067 C.ar    1  UNL1       -0.0024
     22 C         142.3917  145.5617  163.5473 C.ar    1  UNL1        0.0028
     23 C         143.6114  144.8344  163.0642 C.ar    1  UNL1        0.0372
     24 C         143.6715  143.3376  163.1403 C.ar    1  UNL1        0.1465
     25 C         142.5119  142.5679  163.6997 C.ar    1  UNL1        0.0346
     26 O         144.8912  142.6103  162.6571 O.3     1  UNL1       -0.4045
     27 C         145.3420  141.3590  163.3505 C.3     1  UNL1        0.5753
     28 F         145.7929  140.1075  164.0439 F       1  UNL1       -0.1328
     29 F         145.7864  142.1725  164.5298 F       1  UNL1       -0.1328
     30 F         144.8977  140.5454  162.1713 F       1  UNL1       -0.1328
@<TRIPOS>BOND
     1    13    14    1
     2    14    15   ar
     3    15    16   ar
     4    16    17   ar
     5    17     1    1
     6     1     2    2
     7     1     3   am
     8     3    19    1
     9    19    20    1
    10    20    21   ar
    11    21    22   ar
    12    22    23   ar
    13    23    24   ar
    14    24    26    1
    15    26    27    1
    16    27    28    1
    17    27    29    1
    18    27    30    1
    19    24    25   ar
    20     4     3    1
    21     4     5    1
    22     6     5    1
    23     6     7    1
    24     7     8    1
    25     8     9    1
    26    10     9    1
    27    10    11    1
    28    17    18   ar
    29    18    14   ar
    30    25    20   ar
    31    11     4    1
    32    10     6    1
    33     8    12    1
@<TRIPOS>MOLECULE
*****
 30 33 0 0 0
SMALL
GASTEIGER

@<TRIPOS>ATOM
      1 C         141.9417  139.2364  165.9223 C.2     1  UNL1        0.2685
      2 O         141.4930  137.9524  165.2899 O.2     1  UNL1       -0.2682
      3 N         142.4506  140.3570  165.0648 N.am    1  UNL1       -0.2723
      4 C         142.5107  140.1936  163.5750 C.3     1  UNL1        0.0761
      5 C         143.7444  139.9184  162.7673 C.3     1  UNL1        0.0213
      6 C         143.3439  139.8314  161.3243 C.3     1  UNL1        0.0188
      7 C         143.8589  139.6076  159.9334 C.3     1  UNL1        0.0686
      8 N         142.6959  139.6908  158.9897 N.3     1  UNL1       -0.2975
      9 C         141.4622  139.9660  159.7973 C.3     1  UNL1        0.0686
     10 C         141.8627  140.0530  161.2403 C.3     1  UNL1        0.0188
     11 C         141.3478  140.2768  162.6312 C.3     1  UNL1        0.0213
     12 H         142.5923  138.8079  158.4894 H       1  UNL1        0.1232
     13 C         140.2380  140.4075  170.7809 C.3     1  UNL1        0.1321
     14 N         141.0984  139.9380  169.6454 N.ar    1  UNL1       -0.3057
     15 C         142.4791  139.3642  169.7642 C.ar    1  UNL1        0.1787
     16 N         142.9631  139.0315  168.3839 N.ar    1  UNL1       -0.2192
     17 C         141.8815  139.3997  167.4122 C.ar    1  UNL1        0.1535
     18 C         140.7290  139.9600  168.1918 C.ar    1  UNL1        0.1012
     19 C         142.8992  141.6411  165.6973 C.3     1  UNL1        0.1205
     20 C         142.6602  142.9457  164.9967 C.ar    1  UNL1        0.0007
     21 C         143.8210  143.8154  164.6144 C.ar    1  UNL1       -0.0024
     22 C         143.5820  145.1201  163.9138 C.ar    1  UNL1        0.0028
     23 C         142.1821  145.5550  163.5957 C.ar    1  UNL1        0.0372
     24 C         141.0214  144.6853  163.9781 C.ar    1  UNL1        0.1465
     25 C         141.2604  143.3807  164.6786 C.ar    1  UNL1        0.0346
     26 O         139.6214  145.1203  163.6600 O.3     1  UNL1       -0.4045
     27 C         138.4625  144.5131  164.3936 C.3     1  UNL1        0.5753
     28 F         137.3035  143.9059  165.1273 F       1  UNL1       -0.1328
     29 F         138.7670  145.3717  165.5852 F       1  UNL1       -0.1328
     30 F         138.1579  143.6544  163.2020 F       1  UNL1       -0.1328
@<TRIPOS>BOND
     1    13    14    1
     2    14    15   ar
     3    15    16   ar
     4    16    17   ar
     5    17     1    1
     6     1     2    2
     7     1     3   am
     8     3    19    1
     9    19    20    1
    10    20    21   ar
    11    21    22   ar
    12    22    23   ar
    13    23    24   ar
    14    24    26    1
    15    26    27    1
    16    27    28    1
    17    27    29    1
    18    27    30    1
    19    24    25   ar
    20     4     3    1
    21     4     5    1
    22     6     5    1
    23     6     7    1
    24     7     8    1
    25     8     9    1
    26    10     9    1
    27    10    11    1
    28    17    18   ar
    29    18    14   ar
    30    25    20   ar
    31    11     4    1
    32    10     6    1
    33     8    12    1
@<TRIPOS>MOLECULE
*****
 30 33 0 0 0
SMALL
GASTEIGER

@<TRIPOS>ATOM
      1 C         142.6646  142.9335  165.1058 C.2     1  UNL1        0.2685
      2 O         143.9473  143.2461  165.8178 O.2     1  UNL1       -0.2682
      3 N         141.5503  142.2441  165.8360 N.am    1  UNL1       -0.2723
      4 C         141.7188  141.8673  167.2780 C.3     1  UNL1        0.0761
      5 C         142.5456  140.7304  167.8015 C.3     1  UNL1        0.0213
      6 C         142.4278  140.7216  169.2968 C.3     1  UNL1        0.0188
      7 C         142.8661  140.0136  170.5445 C.3     1  UNL1        0.0686
      8 N         142.2373  140.7075  171.7163 N.3     1  UNL1       -0.2975
      9 C         141.4105  141.8443  171.1929 C.3     1  UNL1        0.0686
     10 C         141.5283  141.8531  169.6976 C.3     1  UNL1        0.0188
     11 C         141.0900  142.5612  168.4499 C.3     1  UNL1        0.0213
     12 H         142.9633  141.0647  172.3374 H       1  UNL1        0.1232
     13 C         142.8609  142.8223  159.8305 C.3     1  UNL1        0.1321
     14 N         142.5864  143.2593  161.2389 N.ar    1  UNL1       -0.3057
     15 C         141.8877  144.5212  161.6503 C.ar    1  UNL1        0.1787
     16 N         141.8319  144.5528  163.1489 N.ar    1  UNL1       -0.2192
     17 C         142.4961  143.3104  163.6637 C.ar    1  UNL1        0.1535
     18 C         142.9625  142.5109  162.4833 C.ar    1  UNL1        0.1012
     19 C         140.2675  141.9316  165.1240 C.3     1  UNL1        0.1205
     20 C         139.7984  140.5112  165.0127 C.ar    1  UNL1        0.0007
     21 C         138.8602  139.9486  166.0390 C.ar    1  UNL1       -0.0024
     22 C         138.3911  138.5281  165.9276 C.ar    1  UNL1        0.0028
     23 C         138.8603  137.6704  164.7901 C.ar    1  UNL1        0.0372
     24 C         139.7985  138.2330  163.7639 C.ar    1  UNL1        0.1465
     25 C         140.2676  139.6533  163.8752 C.ar    1  UNL1        0.0346
     26 O         140.2678  137.3751  162.6263 O.3     1  UNL1       -0.4045
     27 C         141.5029  137.7516  161.8630 C.3     1  UNL1        0.5753
     28 F         142.7382  138.1281  161.0997 F       1  UNL1       -0.1328
     29 F         142.3419  137.4385  163.0664 F       1  UNL1       -0.1328
     30 F         140.6640  138.0648  160.6597 F       1  UNL1       -0.1328
@<TRIPOS>BOND
     1    13    14    1
     2    14    15   ar
     3    15    16   ar
     4    16    17   ar
     5    17     1    1
     6     1     2    2
     7     1     3   am
     8     3    19    1
     9    19    20    1
    10    20    21   ar
    11    21    22   ar
    12    22    23   ar
    13    23    24   ar
    14    24    26    1
    15    26    27    1
    16    27    28    1
    17    27    29    1
    18    27    30    1
    19    24    25   ar
    20     4     3    1
    21     4     5    1
    22     6     5    1
    23     6     7    1
    24     7     8    1
    25     8     9    1
    26    10     9    1
    27    10    11    1
    28    17    18   ar
    29    18    14   ar
    30    25    20   ar
    31    11     4    1
    32    10     6    1
    33     8    12    1
@<TRIPOS>MOLECULE
*****
 30 33 0 0 0
SMALL
GASTEIGER

@<TRIPOS>ATOM
      1 C         142.2585  140.6583  166.8515 C.2     1  UNL1        0.2685
      2 O         141.9528  139.2028  167.0458 O.2     1  UNL1       -0.2682
      3 N         142.6600  141.1662  165.4984 N.am    1  UNL1       -0.2723
      4 C         142.7557  140.2186  164.3397 C.3     1  UNL1        0.0761
      5 C         141.6011  139.6301  163.5842 C.3     1  UNL1        0.0213
      6 C         142.1547  138.7408  162.5105 C.3     1  UNL1        0.0188
      7 C         141.7831  137.8276  161.3801 C.3     1  UNL1        0.0686
      8 N         143.0503  137.3020  160.7733 N.3     1  UNL1       -0.2975
      9 C         144.2049  137.8904  161.5287 C.3     1  UNL1        0.0686
     10 C         143.6513  138.7797  162.6024 C.3     1  UNL1        0.0188
     11 C         144.0228  139.6929  163.7328 C.3     1  UNL1        0.0213
     12 H         143.1034  137.5751  159.7920 H       1  UNL1        0.1232
     13 C         140.4580  144.2980  170.2266 C.3     1  UNL1        0.1321
     14 N         141.3352  143.2789  169.5617 N.ar    1  UNL1       -0.3057
     15 C         142.6956  142.8496  170.0252 C.ar    1  UNL1        0.1787
     16 N         143.2071  141.8157  169.0664 N.ar    1  UNL1       -0.2192
     17 C         142.1628  141.6060  168.0103 C.ar    1  UNL1        0.1535
     18 C         141.0059  142.5103  168.3164 C.ar    1  UNL1        0.1012
     19 C         142.9658  142.6219  165.3041 C.3     1  UNL1        0.1205
     20 C         142.0046  143.4966  164.5551 C.ar    1  UNL1        0.0007
     21 C         142.5178  144.6350  163.7241 C.ar    1  UNL1       -0.0024
     22 C         141.5565  145.5098  162.9751 C.ar    1  UNL1        0.0028
     23 C         140.0822  145.2460  163.0572 C.ar    1  UNL1        0.0372
     24 C         139.5691  144.1077  163.8883 C.ar    1  UNL1        0.1465
     25 C         140.5303  143.2329  164.6372 C.ar    1  UNL1        0.0346
     26 O         138.0947  143.8439  163.9704 O.3     1  UNL1       -0.4045
     27 C         137.5298  142.5662  163.4241 C.3     1  UNL1        0.5753
     28 F         136.9650  141.2885  162.8778 F       1  UNL1       -0.1328
     29 F         137.5518  143.1476  162.0416 F       1  UNL1       -0.1328
     30 F         137.5078  141.9847  164.8066 F       1  UNL1       -0.1328
@<TRIPOS>BOND
     1    13    14    1
     2    14    15   ar
     3    15    16   ar
     4    16    17   ar
     5    17     1    1
     6     1     2    2
     7     1     3   am
     8     3    19    1
     9    19    20    1
    10    20    21   ar
    11    21    22   ar
    12    22    23   ar
    13    23    24   ar
    14    24    26    1
    15    26    27    1
    16    27    28    1
    17    27    29    1
    18    27    30    1
    19    24    25   ar
    20     4     3    1
    21     4     5    1
    22     6     5    1
    23     6     7    1
    24     7     8    1
    25     8     9    1
    26    10     9    1
    27    10    11    1
    28    17    18   ar
    29    18    14   ar
    30    25    20   ar
    31    11     4    1
    32    10     6    1
    33     8    12    1
