@<TRIPOS>MOLECULE
*****
 38 44 0 0 0
SMALL
GASTEIGER

@<TRIPOS>ATOM
      1 C         142.8446  143.4124  170.6595 C.3     1  UNL1        0.0339
      2 C         142.1379  142.5256  169.6775 C.3     1  UNL1        0.1349
      3 C         142.6728  142.3734  168.2844 C.3     1  UNL1        0.1205
      4 N         141.9661  141.4867  167.3024 N.pl3   1  UNL1       -0.3019
      5 C         142.5009  141.3345  165.9093 C.ar    1  UNL1        0.0749
      6 C         141.7943  140.4477  164.9274 C.ar    1  UNL1       -0.0053
      7 C         142.3292  140.2956  163.5342 C.ar    1  UNL1        0.0032
      8 C         143.5707  141.0302  163.1231 C.ar    1  UNL1        0.0745
      9 C         144.3277  141.0759  161.8290 C.ar    1  UNL1        0.1821
     10 N         145.5023  141.9910  162.0111 N.ar    1  UNL1       -0.0613
     11 O         145.4711  142.5107  163.4178 O.2     1  UNL1       -0.3498
     12 C         144.2773  141.9169  164.1051 C.ar    1  UNL1        0.2065
     13 C         143.7425  142.0691  165.4982 C.ar    1  UNL1        0.1899
     14 F         144.4492  142.9558  166.4802 F       1  UNL1       -0.1996
     15 C         140.5528  139.7132  165.3384 C.3     1  UNL1        0.0468
     16 C         140.0180  139.8654  166.7315 C.3     1  UNL1        0.1606
     17 C         139.3113  138.9786  165.7495 C.2     1  UNL1        0.2387
     18 O         139.8461  138.8264  164.3565 O.2     1  UNL1       -0.2741
     19 N         138.0697  138.2440  166.1607 N.am    1  UNL1       -0.2389
     20 C         137.5349  138.3962  167.5538 C.2     1  UNL1        0.3122
     21 O         136.2933  137.6616  167.9650 O.2     1  UNL1       -0.2520
     22 N         138.2416  139.2830  168.5358 N.am    1  UNL1       -0.2389
     23 C         139.4831  140.0175  168.1247 C.2     1  UNL1        0.2387
     24 O         139.7156  140.4316  168.7650 O.2     1  UNL1       -0.2741
     25 C         140.7246  140.7521  167.7135 C.3     1  UNL1        0.1166
     26 C         140.1897  140.9043  169.1067 C.3     1  UNL1        0.1341
     27 C         138.9482  140.1697  169.5178 C.3     1  UNL1        0.0338
     28 O         140.8964  141.7910  170.0887 O.3     1  UNL1       -0.3553
     29 H         137.6059  137.6620  165.5162 H       1  UNL1        0.1591
     30 H         137.8905  139.3828  169.4501 H       1  UNL1        0.1591
     31 N         143.9726  140.3365  160.5731 N.am    1  UNL1       -0.2035
     32 C         143.6864  140.9549  159.2369 C.3     1  UNL1        0.1430
     33 C         143.3782  139.8495  158.2710 C.3     1  UNL1        0.1564
     34 C         143.1463  140.7378  157.0847 C.3     1  UNL1        0.0456
     35 C         143.0149  139.2501  156.9447 C.3     1  UNL1        0.0456
     36 O         143.4738  138.5478  159.0103 O.3     1  UNL1       -0.4398
     37 C         143.8412  138.8488  160.4332 C.2     1  UNL1        0.4098
     38 O         144.0420  137.8394  161.5244 O.2     1  UNL1       -0.2258
@<TRIPOS>BOND
     1     2     1    1
     2     2     3    1
     3     3     4    1
     4     4     5    1
     5     5     6   ar
     6     6     7   ar
     7     7     8   ar
     8     8     9   ar
     9     9    31    1
    10    31    32    1
    11    32    33    1
    12    33    34    1
    13    34    35    1
    14    33    36    1
    15    36    37    1
    16    37    38    2
    17     9    10   ar
    18    10    11   ar
    19    11    12   ar
    20    12    13   ar
    21    13    14    1
    22     6    15    1
    23    15    16    1
    24    16    17    1
    25    17    18    2
    26    17    19   am
    27    19    20   am
    28    20    21    2
    29    20    22   am
    30    22    23   am
    31    23    24    2
    32    25    16    1
    33    25    26    1
    34    26    27    1
    35    26    28    1
    36    28     2    1
    37    25     4    1
    38    13     5   ar
    39    23    16    1
    40    12     8   ar
    41    37    31   am
    42    35    33    1
    43    19    29    1
    44    22    30    1
@<TRIPOS>MOLECULE
*****
 38 44 0 0 0
SMALL
GASTEIGER

@<TRIPOS>ATOM
      1 C         139.6377  143.2491  170.7153 C.3     1  UNL1        0.0339
      2 C         140.3211  142.4892  169.6173 C.3     1  UNL1        0.1349
      3 C         140.1604  142.9249  168.1911 C.3     1  UNL1        0.1205
      4 N         140.8438  142.1650  167.0931 N.pl3   1  UNL1       -0.3019
      5 C         140.6831  142.6008  165.6668 C.ar    1  UNL1        0.0749
      6 C         141.3665  141.8409  164.5689 C.ar    1  UNL1       -0.0053
      7 C         141.2058  142.2768  163.1426 C.ar    1  UNL1        0.0032
      8 C         140.3617  143.4724  162.8143 C.ar    1  UNL1        0.0745
      9 C         140.0212  144.1335  161.5116 C.ar    1  UNL1        0.1821
     10 N         139.1273  145.3019  161.8044 N.ar    1  UNL1       -0.0613
     11 O         138.9154  145.3630  163.2881 O.2     1  UNL1       -0.3498
     12 C         139.6783  144.2323  163.9122 C.ar    1  UNL1        0.2065
     13 C         139.8390  143.7966  165.3385 C.ar    1  UNL1        0.1899
     14 F         139.1556  144.5565  166.4364 F       1  UNL1       -0.1996
     15 C         142.2106  140.6452  164.8972 C.3     1  UNL1        0.0468
     16 C         142.3713  140.2095  166.3234 C.3     1  UNL1        0.1606
     17 C         143.0547  139.4496  165.2255 C.2     1  UNL1        0.2387
     18 O         142.8940  139.8853  163.7992 O.2     1  UNL1       -0.2741
     19 N         143.8988  138.2538  165.5538 N.am    1  UNL1       -0.2389
     20 C         144.0595  137.8180  166.9801 C.2     1  UNL1        0.3122
     21 O         144.9036  136.6223  167.3084 O.2     1  UNL1       -0.2520
     22 N         143.3761  138.5779  168.0780 N.am    1  UNL1       -0.2389
     23 C         142.5320  139.7736  167.7497 C.2     1  UNL1        0.2387
     24 O         142.2542  140.0443  168.4462 O.2     1  UNL1       -0.2741
     25 C         141.6879  140.9694  167.4214 C.3     1  UNL1        0.1166
     26 C         141.8486  140.5335  168.8477 C.3     1  UNL1        0.1341
     27 C         142.6927  139.3378  169.1760 C.3     1  UNL1        0.0338
     28 O         141.1652  141.2934  169.9457 O.3     1  UNL1       -0.3553
     29 H         144.3474  137.7551  164.8332 H       1  UNL1        0.1591
     30 H         143.4816  138.2919  169.0141 H       1  UNL1        0.1591
     31 N         140.4919  143.7018  160.1543 N.am    1  UNL1       -0.2035
     32 C         141.9045  143.7554  159.6528 C.3     1  UNL1        0.1430
     33 C         141.9183  143.2275  158.2489 C.3     1  UNL1        0.1564
     34 C         143.3926  143.3989  158.0314 C.3     1  UNL1        0.0456
     35 C         142.5332  142.8379  156.9373 C.3     1  UNL1        0.0456
     36 O         140.5142  142.8477  157.8826 O.3     1  UNL1       -0.4398
     37 C         139.6325  143.1408  159.0603 C.2     1  UNL1        0.4098
     38 O         138.1517  142.9130  159.1315 O.2     1  UNL1       -0.2258
@<TRIPOS>BOND
     1     2     1    1
     2     2     3    1
     3     3     4    1
     4     4     5    1
     5     5     6   ar
     6     6     7   ar
     7     7     8   ar
     8     8     9   ar
     9     9    31    1
    10    31    32    1
    11    32    33    1
    12    33    34    1
    13    34    35    1
    14    33    36    1
    15    36    37    1
    16    37    38    2
    17     9    10   ar
    18    10    11   ar
    19    11    12   ar
    20    12    13   ar
    21    13    14    1
    22     6    15    1
    23    15    16    1
    24    16    17    1
    25    17    18    2
    26    17    19   am
    27    19    20   am
    28    20    21    2
    29    20    22   am
    30    22    23   am
    31    23    24    2
    32    25    16    1
    33    25    26    1
    34    26    27    1
    35    26    28    1
    36    28     2    1
    37    25     4    1
    38    13     5   ar
    39    23    16    1
    40    12     8   ar
    41    37    31   am
    42    35    33    1
    43    19    29    1
    44    22    30    1
@<TRIPOS>MOLECULE
*****
 38 44 0 0 0
SMALL
GASTEIGER

@<TRIPOS>ATOM
      1 C         143.7210  144.7091  163.8828 C.3     1  UNL1        0.0339
      2 C         142.9110  143.4564  163.7257 C.3     1  UNL1        0.1349
      3 C         143.0701  142.6094  162.4980 C.3     1  UNL1        0.1205
      4 N         142.2602  141.3567  162.3409 N.pl3   1  UNL1       -0.3019
      5 C         142.4193  140.5098  161.1132 C.ar    1  UNL1        0.0749
      6 C         141.6093  139.2570  160.9561 C.ar    1  UNL1       -0.0053
      7 C         141.7684  138.4101  159.7283 C.ar    1  UNL1        0.0032
      8 C         142.7375  138.8158  158.6577 C.ar    1  UNL1        0.0745
      9 C         143.1067  138.1865  157.3471 C.ar    1  UNL1        0.1821
     10 N         144.1448  139.0502  156.6942 N.ar    1  UNL1       -0.0613
     11 O         144.4172  140.2134  157.6013 O.2     1  UNL1       -0.3498
     12 C         143.5474  140.0685  158.8148 C.ar    1  UNL1        0.2065
     13 C         143.3883  140.9155  160.0425 C.ar    1  UNL1        0.1899
     14 F         144.1983  142.1682  160.1996 F       1  UNL1       -0.1996
     15 C         140.6403  138.8513  162.0267 C.3     1  UNL1        0.0468
     16 C         140.4812  139.6982  163.2544 C.3     1  UNL1        0.1606
     17 C         139.6712  138.4455  163.0974 C.2     1  UNL1        0.2387
     18 O         139.8303  137.5986  161.8697 O.2     1  UNL1       -0.2741
     19 N         138.7022  138.0398  164.1681 N.am    1  UNL1       -0.2389
     20 C         138.5431  138.8867  165.3958 C.2     1  UNL1        0.3122
     21 O         137.5740  138.4810  166.4665 O.2     1  UNL1       -0.2520
     22 N         139.3530  140.1394  165.5529 N.am    1  UNL1       -0.2389
     23 C         140.3221  140.5452  164.4822 C.2     1  UNL1        0.2387
     24 O         140.6560  141.2239  164.7339 O.2     1  UNL1       -0.2741
     25 C         141.2911  140.9509  163.4115 C.3     1  UNL1        0.1166
     26 C         141.1320  141.7979  164.6393 C.3     1  UNL1        0.1341
     27 C         140.1630  141.3922  165.7099 C.3     1  UNL1        0.0338
     28 O         141.9420  143.0506  164.7964 O.3     1  UNL1       -0.3553
     29 H         138.1706  137.2176  164.0650 H       1  UNL1        0.1591
     30 H         139.2486  140.6953  166.3587 H       1  UNL1        0.1591
     31 N         142.5376  136.9163  156.7877 N.am    1  UNL1       -0.2035
     32 C         143.1755  135.5603  156.8536 C.3     1  UNL1        0.1430
     33 C         142.2629  134.5851  156.1708 C.3     1  UNL1        0.1564
     34 C         143.1295  133.3803  156.3889 C.3     1  UNL1        0.0456
     35 C         141.8226  133.2432  155.6654 C.3     1  UNL1        0.0456
     36 O         141.0610  135.3384  155.6829 O.3     1  UNL1       -0.4398
     37 C         141.2308  136.7792  156.0642 C.2     1  UNL1        0.4098
     38 O         140.2636  137.8882  155.7731 O.2     1  UNL1       -0.2258
@<TRIPOS>BOND
     1     2     1    1
     2     2     3    1
     3     3     4    1
     4     4     5    1
     5     5     6   ar
     6     6     7   ar
     7     7     8   ar
     8     8     9   ar
     9     9    31    1
    10    31    32    1
    11    32    33    1
    12    33    34    1
    13    34    35    1
    14    33    36    1
    15    36    37    1
    16    37    38    2
    17     9    10   ar
    18    10    11   ar
    19    11    12   ar
    20    12    13   ar
    21    13    14    1
    22     6    15    1
    23    15    16    1
    24    16    17    1
    25    17    18    2
    26    17    19   am
    27    19    20   am
    28    20    21    2
    29    20    22   am
    30    22    23   am
    31    23    24    2
    32    25    16    1
    33    25    26    1
    34    26    27    1
    35    26    28    1
    36    28     2    1
    37    25     4    1
    38    13     5   ar
    39    23    16    1
    40    12     8   ar
    41    37    31   am
    42    35    33    1
    43    19    29    1
    44    22    30    1
@<TRIPOS>MOLECULE
*****
 38 44 0 0 0
SMALL
GASTEIGER

@<TRIPOS>ATOM
      1 C         136.6148  137.7602  167.6136 C.3     1  UNL1        0.0339
      2 C         137.8584  138.5255  167.2707 C.3     1  UNL1        0.1349
      3 C         138.3562  138.5525  165.8560 C.3     1  UNL1        0.1205
      4 N         139.5999  139.3178  165.5130 N.pl3   1  UNL1       -0.3019
      5 C         140.0977  139.3448  164.0983 C.ar    1  UNL1        0.0749
      6 C         141.3414  140.1101  163.7553 C.ar    1  UNL1       -0.0053
      7 C         141.8392  140.1371  162.3405 C.ar    1  UNL1        0.0032
      8 C         141.0933  139.3988  161.2688 C.ar    1  UNL1        0.0745
      9 C         141.3414  139.2447  159.7975 C.ar    1  UNL1        0.1821
     10 N         140.2511  138.3842  159.2312 N.ar    1  UNL1       -0.0613
     11 O         139.3292  138.0064  160.3525 O.2     1  UNL1       -0.3498
     12 C         139.8497  138.6335  161.6118 C.ar    1  UNL1        0.2065
     13 C         139.3519  138.6065  163.0265 C.ar    1  UNL1        0.1899
     14 F         138.1082  137.8412  163.3695 F       1  UNL1       -0.1996
     15 C         142.0872  140.8484  164.8270 C.3     1  UNL1        0.0468
     16 C         141.5894  140.8213  166.2417 C.3     1  UNL1        0.1606
     17 C         142.8331  141.5866  165.8987 C.2     1  UNL1        0.2387
     18 O         143.3309  141.6136  164.4840 O.2     1  UNL1       -0.2741
     19 N         143.5789  142.3250  166.9705 N.am    1  UNL1       -0.2389
     20 C         143.0811  142.2979  168.3852 C.2     1  UNL1        0.3122
     21 O         143.8270  143.0363  169.4570 O.2     1  UNL1       -0.2520
     22 N         141.8374  141.5327  168.7282 N.am    1  UNL1       -0.2389
     23 C         141.0916  140.7944  167.6565 C.2     1  UNL1        0.2387
     24 O         140.4687  140.4525  168.0180 O.2     1  UNL1       -0.2741
     25 C         140.3457  140.0561  166.5847 C.3     1  UNL1        0.1166
     26 C         139.8479  140.0291  167.9995 C.3     1  UNL1        0.1341
     27 C         140.5938  140.7674  169.0712 C.3     1  UNL1        0.0338
     28 O         138.6043  139.2638  168.3425 O.3     1  UNL1       -0.3553
     29 H         144.3952  142.8272  166.7454 H       1  UNL1        0.1591
     30 H         141.5107  141.5149  169.6567 H       1  UNL1        0.1591
     31 N         142.4800  139.8456  159.0277 N.am    1  UNL1       -0.2035
     32 C         142.9555  141.2652  159.1212 C.3     1  UNL1        0.1430
     33 C         144.1123  141.4294  158.1806 C.3     1  UNL1        0.1564
     34 C         144.3566  142.8780  158.4840 C.3     1  UNL1        0.0456
     35 C         145.2196  142.1649  157.4855 C.3     1  UNL1        0.0456
     36 O         144.3517  140.1114  157.5057 O.3     1  UNL1       -0.4398
     37 C         143.3429  139.1325  158.0293 C.2     1  UNL1        0.4098
     38 O         143.2187  137.6933  157.6253 O.2     1  UNL1       -0.2258
@<TRIPOS>BOND
     1     2     1    1
     2     2     3    1
     3     3     4    1
     4     4     5    1
     5     5     6   ar
     6     6     7   ar
     7     7     8   ar
     8     8     9   ar
     9     9    31    1
    10    31    32    1
    11    32    33    1
    12    33    34    1
    13    34    35    1
    14    33    36    1
    15    36    37    1
    16    37    38    2
    17     9    10   ar
    18    10    11   ar
    19    11    12   ar
    20    12    13   ar
    21    13    14    1
    22     6    15    1
    23    15    16    1
    24    16    17    1
    25    17    18    2
    26    17    19   am
    27    19    20   am
    28    20    21    2
    29    20    22   am
    30    22    23   am
    31    23    24    2
    32    25    16    1
    33    25    26    1
    34    26    27    1
    35    26    28    1
    36    28     2    1
    37    25     4    1
    38    13     5   ar
    39    23    16    1
    40    12     8   ar
    41    37    31   am
    42    35    33    1
    43    19    29    1
    44    22    30    1
@<TRIPOS>MOLECULE
*****
 38 44 0 0 0
SMALL
GASTEIGER

@<TRIPOS>ATOM
      1 C         144.3574  140.3115  158.1879 C.3     1  UNL1        0.0339
      2 C         143.5975  141.1264  159.1922 C.3     1  UNL1        0.1349
      3 C         143.5679  140.7055  160.6316 C.3     1  UNL1        0.1205
      4 N         142.8080  141.5204  161.6358 N.pl3   1  UNL1       -0.3019
      5 C         142.7783  141.0995  163.0752 C.ar    1  UNL1        0.0749
      6 C         142.0185  141.9144  164.0794 C.ar    1  UNL1       -0.0053
      7 C         141.9889  141.4934  165.5189 C.ar    1  UNL1        0.0032
      8 C         142.7191  140.2576  165.9541 C.ar    1  UNL1        0.0745
      9 C         142.8690  139.5996  167.2937 C.ar    1  UNL1        0.1821
     10 N         143.7214  138.3781  167.1175 N.ar    1  UNL1       -0.0613
     11 O         144.0984  138.2811  165.6689 O.2     1  UNL1       -0.3498
     12 C         143.4789  139.4427  164.9498 C.ar    1  UNL1        0.2065
     13 C         143.5086  139.8636  163.5104 C.ar    1  UNL1        0.1899
     14 F         144.2684  139.0486  162.5062 F       1  UNL1       -0.1996
     15 C         141.2883  143.1503  163.6443 C.3     1  UNL1        0.0468
     16 C         141.3179  143.5712  162.2049 C.3     1  UNL1        0.1606
     17 C         140.5581  144.3861  163.2091 C.2     1  UNL1        0.2387
     18 O         140.5284  143.9652  164.6485 O.2     1  UNL1       -0.2741
     19 N         139.8278  145.6220  162.7739 N.am    1  UNL1       -0.2389
     20 C         139.8575  146.0430  161.3345 C.2     1  UNL1        0.3122
     21 O         139.1272  147.2789  160.8993 O.2     1  UNL1       -0.2520
     22 N         140.6173  145.2280  160.3303 N.am    1  UNL1       -0.2389
     23 C         141.3476  143.9922  160.7654 C.2     1  UNL1        0.2387
     24 O         141.6874  143.6950  160.1084 O.2     1  UNL1       -0.2741
     25 C         142.0778  142.7563  161.2007 C.3     1  UNL1        0.1166
     26 C         142.1074  143.1772  159.7612 C.3     1  UNL1        0.1341
     27 C         141.3772  144.4131  159.3260 C.3     1  UNL1        0.0338
     28 O         142.8673  142.3623  158.7570 O.3     1  UNL1       -0.3553
     29 H         139.3291  146.1569  163.4330 H       1  UNL1        0.1591
     30 H         140.6368  145.5043  159.3855 H       1  UNL1        0.1591
     31 N         142.2713  140.0791  168.5832 N.am    1  UNL1       -0.2035
     32 C         141.4799  141.3391  168.7735 C.3     1  UNL1        0.1430
     33 C         141.0795  141.4215  170.2167 C.3     1  UNL1        0.1564
     34 C         140.3395  142.7211  170.1002 C.3     1  UNL1        0.0456
     35 C         140.4282  142.0248  171.4259 C.3     1  UNL1        0.0456
     36 O         141.6234  140.2125  170.9185 O.3     1  UNL1       -0.4398
     37 C         142.3600  139.3828  169.9089 C.2     1  UNL1        0.4098
     38 O         143.0620  138.0848  170.1777 O.2     1  UNL1       -0.2258
@<TRIPOS>BOND
     1     2     1    1
     2     2     3    1
     3     3     4    1
     4     4     5    1
     5     5     6   ar
     6     6     7   ar
     7     7     8   ar
     8     8     9   ar
     9     9    31    1
    10    31    32    1
    11    32    33    1
    12    33    34    1
    13    34    35    1
    14    33    36    1
    15    36    37    1
    16    37    38    2
    17     9    10   ar
    18    10    11   ar
    19    11    12   ar
    20    12    13   ar
    21    13    14    1
    22     6    15    1
    23    15    16    1
    24    16    17    1
    25    17    18    2
    26    17    19   am
    27    19    20   am
    28    20    21    2
    29    20    22   am
    30    22    23   am
    31    23    24    2
    32    25    16    1
    33    25    26    1
    34    26    27    1
    35    26    28    1
    36    28     2    1
    37    25     4    1
    38    13     5   ar
    39    23    16    1
    40    12     8   ar
    41    37    31   am
    42    35    33    1
    43    19    29    1
    44    22    30    1
@<TRIPOS>MOLECULE
*****
 38 44 0 0 0
SMALL
GASTEIGER

@<TRIPOS>ATOM
      1 C         136.8789  137.8646  167.6013 C.3     1  UNL1        0.0339
      2 C         138.0149  138.7966  167.2998 C.3     1  UNL1        0.1349
      3 C         138.1834  139.3507  165.9161 C.3     1  UNL1        0.1205
      4 N         139.3194  140.2827  165.6147 N.pl3   1  UNL1       -0.3019
      5 C         139.4879  140.8368  164.2310 C.ar    1  UNL1        0.0749
      6 C         140.6240  141.7688  163.9295 C.ar    1  UNL1       -0.0053
      7 C         140.7924  142.3229  162.5458 C.ar    1  UNL1        0.0032
      8 C         139.8249  141.9451  161.4637 C.ar    1  UNL1        0.0745
      9 C         139.7371  142.3299  160.0165 C.ar    1  UNL1        0.1821
     10 N         138.5469  141.6358  159.4236 N.ar    1  UNL1       -0.0613
     11 O         137.8991  140.8220  160.5043 O.2     1  UNL1       -0.3498
     12 C         138.6889  141.0132  161.7651 C.ar    1  UNL1        0.2065
     13 C         138.5204  140.4590  163.1488 C.ar    1  UNL1        0.1899
     14 F         137.3843  139.5270  163.4503 F       1  UNL1       -0.1996
     15 C         141.5915  142.1466  165.0117 C.3     1  UNL1        0.0468
     16 C         141.4230  141.5925  166.3953 C.3     1  UNL1        0.1606
     17 C         142.5590  142.5244  166.0938 C.2     1  UNL1        0.2387
     18 O         142.7275  143.0786  164.7102 O.2     1  UNL1       -0.2741
     19 N         143.5266  142.9023  167.1760 N.am    1  UNL1       -0.2389
     20 C         143.3581  142.3481  168.5597 C.2     1  UNL1        0.3122
     21 O         144.3257  142.7259  169.6419 O.2     1  UNL1       -0.2520
     22 N         142.2221  141.4162  168.8612 N.am    1  UNL1       -0.2389
     23 C         141.2545  141.0383  167.7790 C.2     1  UNL1        0.2387
     24 O         140.7281  140.5447  168.1176 O.2     1  UNL1       -0.2741
     25 C         140.2870  140.6605  166.6968 C.3     1  UNL1        0.1166
     26 C         140.1185  140.1064  168.0805 C.3     1  UNL1        0.1341
     27 C         141.0861  140.4842  169.1627 C.3     1  UNL1        0.0338
     28 O         138.9825  139.1744  168.3820 O.3     1  UNL1       -0.3553
     29 H         144.2722  143.5139  166.9782 H       1  UNL1        0.1591
     30 H         142.1115  141.0525  169.7693 H       1  UNL1        0.1591
     31 N         140.6750  143.2477  159.2898 N.am    1  UNL1       -0.2035
     32 C         140.2821  144.4393  158.4679 C.3     1  UNL1        0.1430
     33 C         141.5347  145.0632  157.9276 C.3     1  UNL1        0.1564
     34 C         140.8500  146.1729  157.1861 C.3     1  UNL1        0.0456
     35 C         142.3455  146.0602  157.1539 C.3     1  UNL1        0.0456
     36 O         142.7018  144.2571  158.4157 O.3     1  UNL1       -0.4398
     37 C         142.1704  143.1351  159.2576 C.2     1  UNL1        0.4098
     38 O         142.9905  142.0848  159.9464 O.2     1  UNL1       -0.2258
@<TRIPOS>BOND
     1     2     1    1
     2     2     3    1
     3     3     4    1
     4     4     5    1
     5     5     6   ar
     6     6     7   ar
     7     7     8   ar
     8     8     9   ar
     9     9    31    1
    10    31    32    1
    11    32    33    1
    12    33    34    1
    13    34    35    1
    14    33    36    1
    15    36    37    1
    16    37    38    2
    17     9    10   ar
    18    10    11   ar
    19    11    12   ar
    20    12    13   ar
    21    13    14    1
    22     6    15    1
    23    15    16    1
    24    16    17    1
    25    17    18    2
    26    17    19   am
    27    19    20   am
    28    20    21    2
    29    20    22   am
    30    22    23   am
    31    23    24    2
    32    25    16    1
    33    25    26    1
    34    26    27    1
    35    26    28    1
    36    28     2    1
    37    25     4    1
    38    13     5   ar
    39    23    16    1
    40    12     8   ar
    41    37    31   am
    42    35    33    1
    43    19    29    1
    44    22    30    1
@<TRIPOS>MOLECULE
*****
 38 44 0 0 0
SMALL
GASTEIGER

@<TRIPOS>ATOM
      1 C         137.7839  144.5395  165.0001 C.3     1  UNL1        0.0339
      2 C         138.6518  143.3435  164.7426 C.3     1  UNL1        0.1349
      3 C         138.6552  142.6967  163.3892 C.3     1  UNL1        0.1205
      4 N         139.5231  141.5007  163.1317 N.pl3   1  UNL1       -0.3019
      5 C         139.5264  140.8540  161.7783 C.ar    1  UNL1        0.0749
      6 C         140.3943  139.6580  161.5208 C.ar    1  UNL1       -0.0053
      7 C         140.3977  139.0112  160.1673 C.ar    1  UNL1        0.0032
      8 C         139.5332  139.5604  159.0715 C.ar    1  UNL1        0.0745
      9 C         139.3285  139.1373  157.6470 C.ar    1  UNL1        0.1821
     10 N         138.3341  140.0718  157.0242 N.ar    1  UNL1       -0.0613
     11 O         137.9242  141.0725  158.0637 O.2     1  UNL1       -0.3498
     12 C         138.6653  140.7565  159.3290 C.ar    1  UNL1        0.2065
     13 C         138.6619  141.4032  160.6824 C.ar    1  UNL1        0.1899
     14 F         137.7940  142.5992  160.9399 F       1  UNL1       -0.1996
     15 C         141.2589  139.1087  162.6166 C.3     1  UNL1        0.0468
     16 C         141.2555  139.7555  163.9700 C.3     1  UNL1        0.1606
     17 C         142.1234  138.5595  163.7124 C.2     1  UNL1        0.2387
     18 O         142.1268  137.9127  162.3591 O.2     1  UNL1       -0.2741
     19 N         142.9880  138.0102  164.8083 N.am    1  UNL1       -0.2389
     20 C         142.9846  138.6570  166.1617 C.2     1  UNL1        0.3122
     21 O         143.8491  138.1078  167.2576 O.2     1  UNL1       -0.2520
     22 N         142.1167  139.8530  166.4192 N.am    1  UNL1       -0.2389
     23 C         141.2522  140.4023  165.3234 C.2     1  UNL1        0.2387
     24 O         140.8686  141.0262  165.6381 O.2     1  UNL1       -0.2741
     25 C         140.3876  140.9515  164.2275 C.3     1  UNL1        0.1166
     26 C         140.3843  141.5983  165.5810 C.3     1  UNL1        0.1341
     27 C         141.2488  141.0490  166.6768 C.3     1  UNL1        0.0338
     28 O         139.5164  142.7943  165.8385 O.3     1  UNL1       -0.3553
     29 H         143.5576  137.2253  164.6393 H       1  UNL1        0.1591
     30 H         142.1145  140.2775  167.3075 H       1  UNL1        0.1591
     31 N         140.0003  137.9825  156.9652 N.am    1  UNL1       -0.2035
     32 C         141.4131  137.5293  157.1852 C.3     1  UNL1        0.1430
     33 C         141.6632  136.3448  156.2996 C.3     1  UNL1        0.1564
     34 C         143.0860  136.1299  156.7232 C.3     1  UNL1        0.0456
     35 C         142.4629  135.2253  155.7016 C.3     1  UNL1        0.0456
     36 O         140.4049  136.0658  155.5322 O.3     1  UNL1       -0.4398
     37 C         139.3771  137.0780  155.9436 C.2     1  UNL1        0.4098
     38 O         137.9728  137.1696  155.4245 O.2     1  UNL1       -0.2258
@<TRIPOS>BOND
     1     2     1    1
     2     2     3    1
     3     3     4    1
     4     4     5    1
     5     5     6   ar
     6     6     7   ar
     7     7     8   ar
     8     8     9   ar
     9     9    31    1
    10    31    32    1
    11    32    33    1
    12    33    34    1
    13    34    35    1
    14    33    36    1
    15    36    37    1
    16    37    38    2
    17     9    10   ar
    18    10    11   ar
    19    11    12   ar
    20    12    13   ar
    21    13    14    1
    22     6    15    1
    23    15    16    1
    24    16    17    1
    25    17    18    2
    26    17    19   am
    27    19    20   am
    28    20    21    2
    29    20    22   am
    30    22    23   am
    31    23    24    2
    32    25    16    1
    33    25    26    1
    34    26    27    1
    35    26    28    1
    36    28     2    1
    37    25     4    1
    38    13     5   ar
    39    23    16    1
    40    12     8   ar
    41    37    31   am
    42    35    33    1
    43    19    29    1
    44    22    30    1
@<TRIPOS>MOLECULE
*****
 38 44 0 0 0
SMALL
GASTEIGER

@<TRIPOS>ATOM
      1 C         142.2358  137.4920  165.1347 C.3     1  UNL1        0.0339
      2 C         141.4597  138.6929  164.6814 C.3     1  UNL1        0.1349
      3 C         140.9976  138.7938  163.2580 C.3     1  UNL1        0.1205
      4 N         140.2215  139.9947  162.8047 N.pl3   1  UNL1       -0.3019
      5 C         139.7595  140.0956  161.3812 C.ar    1  UNL1        0.0749
      6 C         138.9834  141.2965  160.9279 C.ar    1  UNL1       -0.0053
      7 C         138.5213  141.3973  159.5044 C.ar    1  UNL1        0.0032
      8 C         138.8353  140.2972  158.5342 C.ar    1  UNL1        0.0745
      9 C         138.5141  140.1196  157.0798 C.ar    1  UNL1        0.1821
     10 N         139.0917  138.8090  156.6342 N.ar    1  UNL1       -0.0613
     11 O         139.7698  138.1765  157.8133 O.2     1  UNL1       -0.3498
     12 C         139.6113  139.0963  158.9875 C.ar    1  UNL1        0.2065
     13 C         140.0734  138.9955  160.4110 C.ar    1  UNL1        0.1899
     14 F         140.8495  137.7945  160.8643 F       1  UNL1       -0.1996
     15 C         138.6694  142.3966  161.8980 C.3     1  UNL1        0.0468
     16 C         139.1315  142.2957  163.3215 C.3     1  UNL1        0.1606
     17 C         138.3554  143.4966  162.8682 C.2     1  UNL1        0.2387
     18 O         137.8933  143.5975  161.4447 O.2     1  UNL1       -0.2741
     19 N         138.0414  144.5967  163.8384 N.am    1  UNL1       -0.2389
     20 C         138.5035  144.4959  165.2618 C.2     1  UNL1        0.3122
     21 O         138.1896  145.5960  166.2321 O.2     1  UNL1       -0.2520
     22 N         139.2796  143.2950  165.7152 N.am    1  UNL1       -0.2389
     23 C         139.5936  142.1949  164.7450 C.2     1  UNL1        0.2387
     24 O         140.0048  141.6498  165.1565 O.2     1  UNL1       -0.2741
     25 C         139.9076  141.0948  163.7748 C.3     1  UNL1        0.1166
     26 C         140.3697  140.9940  165.1983 C.3     1  UNL1        0.1341
     27 C         140.0557  142.0940  166.1685 C.3     1  UNL1        0.0338
     28 O         141.1457  139.7930  165.6516 O.3     1  UNL1       -0.3553
     29 H         137.5321  145.3849  163.5409 H       1  UNL1        0.1591
     30 H         139.5829  143.2288  166.6494 H       1  UNL1        0.1591
     31 N         137.7496  141.0835  156.2216 N.am    1  UNL1       -0.2035
     32 C         138.3439  142.1369  155.3343 C.3     1  UNL1        0.1430
     33 C         137.2182  142.8677  154.6644 C.3     1  UNL1        0.1564
     34 C         138.0857  143.8094  153.8830 C.3     1  UNL1        0.0456
     35 C         136.5926  143.8892  153.7615 C.3     1  UNL1        0.0456
     36 O         135.9282  142.2660  155.1377 O.3     1  UNL1       -0.4398
     37 C         136.2567  141.1633  156.1001 C.2     1  UNL1        0.4098
     38 O         135.2661  140.2931  156.8154 O.2     1  UNL1       -0.2258
@<TRIPOS>BOND
     1     2     1    1
     2     2     3    1
     3     3     4    1
     4     4     5    1
     5     5     6   ar
     6     6     7   ar
     7     7     8   ar
     8     8     9   ar
     9     9    31    1
    10    31    32    1
    11    32    33    1
    12    33    34    1
    13    34    35    1
    14    33    36    1
    15    36    37    1
    16    37    38    2
    17     9    10   ar
    18    10    11   ar
    19    11    12   ar
    20    12    13   ar
    21    13    14    1
    22     6    15    1
    23    15    16    1
    24    16    17    1
    25    17    18    2
    26    17    19   am
    27    19    20   am
    28    20    21    2
    29    20    22   am
    30    22    23   am
    31    23    24    2
    32    25    16    1
    33    25    26    1
    34    26    27    1
    35    26    28    1
    36    28     2    1
    37    25     4    1
    38    13     5   ar
    39    23    16    1
    40    12     8   ar
    41    37    31   am
    42    35    33    1
    43    19    29    1
    44    22    30    1
@<TRIPOS>MOLECULE
*****
 38 44 0 0 0
SMALL
GASTEIGER

@<TRIPOS>ATOM
      1 C         139.7564  145.9827  161.7002 C.3     1  UNL1        0.0339
      2 C         139.6724  144.5043  161.9393 C.3     1  UNL1        0.1349
      3 C         140.1260  143.5460  160.8782 C.3     1  UNL1        0.1205
      4 N         140.0420  142.0676  161.1173 N.pl3   1  UNL1       -0.3019
      5 C         140.4956  141.1093  160.0563 C.ar    1  UNL1        0.0749
      6 C         140.4117  139.6308  160.2953 C.ar    1  UNL1       -0.0053
      7 C         140.8653  138.6725  159.2342 C.ar    1  UNL1        0.0032
      8 C         141.4030  139.1927  157.9341 C.ar    1  UNL1        0.0745
      9 C         141.9213  138.4953  156.7114 C.ar    1  UNL1        0.1821
     10 N         142.3257  139.5426  155.7167 N.ar    1  UNL1       -0.0613
     11 O         142.0572  140.8874  156.3246 O.2     1  UNL1       -0.3498
     12 C         141.4870  140.6711  157.6950 C.ar    1  UNL1        0.2065
     13 C         141.0333  141.6294  158.7561 C.ar    1  UNL1        0.1899
     14 F         141.1173  143.1079  158.5170 F       1  UNL1       -0.1996
     15 C         139.8740  139.1107  161.5955 C.3     1  UNL1        0.0468
     16 C         139.4204  140.0690  162.6565 C.3     1  UNL1        0.1606
     17 C         139.3364  138.5905  162.8956 C.2     1  UNL1        0.2387
     18 O         139.7900  137.6322  161.8345 O.2     1  UNL1       -0.2741
     19 N         138.7987  138.0704  164.1958 N.am    1  UNL1       -0.2389
     20 C         138.3451  139.0287  165.2568 C.2     1  UNL1        0.3122
     21 O         137.8074  138.5086  166.5570 O.2     1  UNL1       -0.2520
     22 N         138.4291  140.5071  165.0177 N.am    1  UNL1       -0.2389
     23 C         138.9667  141.0273  163.7176 C.2     1  UNL1        0.2387
     24 O         138.9364  141.8222  163.7697 O.2     1  UNL1       -0.2741
     25 C         139.5044  141.5474  162.4174 C.3     1  UNL1        0.1166
     26 C         139.0507  142.5057  163.4785 C.3     1  UNL1        0.1341
     27 C         138.5131  141.9856  164.7787 C.3     1  UNL1        0.0338
     28 O         139.1347  143.9842  163.2395 O.3     1  UNL1       -0.3553
     29 H         138.7436  137.1001  164.3527 H       1  UNL1        0.1591
     30 H         138.1313  141.1361  165.7142 H       1  UNL1        0.1591
     31 N         142.0183  137.0110  156.5176 N.am    1  UNL1       -0.2035
     32 C         142.9749  136.0912  157.2167 C.3     1  UNL1        0.1430
     33 C         142.7236  134.6977  156.7218 C.3     1  UNL1        0.1564
     34 C         143.7789  134.0404  157.5611 C.3     1  UNL1        0.0456
     35 C         142.9362  133.2154  156.6340 C.3     1  UNL1        0.0456
     36 O         141.6115  134.7562  155.7168 O.3     1  UNL1       -0.4398
     37 C         141.1757  136.1860  155.5906 C.2     1  UNL1        0.4098
     38 O         140.0881  136.7004  154.6947 O.2     1  UNL1       -0.2258
@<TRIPOS>BOND
     1     2     1    1
     2     2     3    1
     3     3     4    1
     4     4     5    1
     5     5     6   ar
     6     6     7   ar
     7     7     8   ar
     8     8     9   ar
     9     9    31    1
    10    31    32    1
    11    32    33    1
    12    33    34    1
    13    34    35    1
    14    33    36    1
    15    36    37    1
    16    37    38    2
    17     9    10   ar
    18    10    11   ar
    19    11    12   ar
    20    12    13   ar
    21    13    14    1
    22     6    15    1
    23    15    16    1
    24    16    17    1
    25    17    18    2
    26    17    19   am
    27    19    20   am
    28    20    21    2
    29    20    22   am
    30    22    23   am
    31    23    24    2
    32    25    16    1
    33    25    26    1
    34    26    27    1
    35    26    28    1
    36    28     2    1
    37    25     4    1
    38    13     5   ar
    39    23    16    1
    40    12     8   ar
    41    37    31   am
    42    35    33    1
    43    19    29    1
    44    22    30    1
