@<TRIPOS>MOLECULE
*****
 33 36 0 0 0
SMALL
GASTEIGER

@<TRIPOS>ATOM
      1 N         138.9942  139.9244  160.3490 N.ar    1  UNL1       -0.2891
      2 C         138.7529  140.3433  158.9291 C.ar    1  UNL1        0.2927
      3 O         138.9425  139.3581  157.8139 O.2     1  UNL1       -0.2639
      4 C         138.3221  141.7474  158.6242 C.ar    1  UNL1        0.1889
      5 N         138.1325  142.7325  159.7393 N.ar    1  UNL1       -0.2231
      6 C         138.3738  142.3136  161.1593 C.ar    1  UNL1        0.1178
      7 C         138.1842  143.2988  162.2744 C.ar    1  UNL1        0.1194
      8 N         138.4255  142.8798  163.6944 N.ar    1  UNL1       -0.2421
      9 C         138.8563  141.4758  163.9992 C.ar    1  UNL1        0.0844
     10 C         139.0459  140.4906  162.8841 C.ar    1  UNL1        0.0380
     11 C         138.8046  140.9095  161.4642 C.ar    1  UNL1        0.0833
     12 N         138.0808  142.1663  157.2042 N.pl3   1  UNL1       -0.2866
     13 C         136.8177  141.7576  156.5060 C.3     1  UNL1        0.1096
     14 C         136.5765  142.1765  155.0861 C.3     1  UNL1        0.0939
     15 N         137.5983  143.0041  154.3643 N.3     1  UNL1       -0.2698
     16 C         138.8614  143.4128  155.0625 C.3     1  UNL1        0.0939
     17 C         139.1026  142.9939  156.4825 C.3     1  UNL1        0.1096
     18 C         137.3570  143.4230  152.9443 C.3     1  UNL1        0.0722
     19 C         135.9643  143.7288  152.4789 C.3     1  UNL1        0.0188
     20 C         139.0976  141.0568  165.4192 C.ar    1  UNL1        0.0371
     21 C         138.5503  139.7531  165.9199 C.ar    1  UNL1        0.0078
     22 C         138.7916  139.3342  167.3399 C.ar    1  UNL1        0.0578
     23 C         139.5802  140.2191  168.2592 C.ar    1  UNL1        0.2250
     24 N         140.1275  141.5229  167.7584 N.ar    1  UNL1       -0.2101
     25 C         139.8862  141.9417  166.3385 C.ar    1  UNL1        0.1035
     26 O         139.8215  139.8003  169.6791 O.3     1  UNL1       -0.4561
     27 C         141.2225  139.5847  170.1697 C.3     1  UNL1        0.2542
     28 C         139.4251  138.5203  160.6538 C.3     1  UNL1        0.1412
     29 C         140.8488  138.2382  161.0329 C.3     1  UNL1        0.1666
     30 O         141.1575  137.1924  162.0630 O.3     1  UNL1       -0.3517
     31 C         140.5275  137.2694  163.4221 C.3     1  UNL1        0.1422
     32 C         142.0632  138.8532  164.7943 C.3     1  UNL1        0.0027
     33 C         141.3787  137.5287  164.6297 C.3     1  UNL1        0.0321
@<TRIPOS>BOND
     1    32    33    1
     2    33    31    1
     3    31    30    1
     4    30    29    1
     5    29    28    1
     6    28     1    1
     7     1     2   ar
     8     2     3    2
     9     2     4   ar
    10     4    12    1
    11    12    13    1
    12    13    14    1
    13    14    15    1
    14    15    18    1
    15    18    19    1
    16    15    16    1
    17    16    17    1
    18     4     5   ar
    19     5     6   ar
    20     6     7   ar
    21     7     8   ar
    22     8     9   ar
    23     9    20    1
    24    20    21   ar
    25    21    22   ar
    26    22    23   ar
    27    23    26    1
    28    26    27    1
    29    23    24   ar
    30    24    25   ar
    31     9    10   ar
    32    10    11   ar
    33    11     1   ar
    34    17    12    1
    35    11     6   ar
    36    25    20   ar
@<TRIPOS>MOLECULE
*****
 33 36 0 0 0
SMALL
GASTEIGER

@<TRIPOS>ATOM
      1 N         140.2491  140.5210  161.4517 N.ar    1  UNL1       -0.2891
      2 C         140.4310  140.0931  160.0256 C.ar    1  UNL1        0.2927
      3 O         140.1477  141.0567  158.9114 O.2     1  UNL1       -0.2639
      4 C         140.8960  138.7016  159.7135 C.ar    1  UNL1        0.1889
      5 N         141.1793  137.7379  160.8275 N.ar    1  UNL1       -0.2231
      6 C         140.9975  138.1658  162.2537 C.ar    1  UNL1        0.1178
      7 C         141.2807  137.2021  163.3678 C.ar    1  UNL1        0.1194
      8 N         141.0989  137.6300  164.7939 N.ar    1  UNL1       -0.2421
      9 C         140.6338  139.0215  165.1059 C.ar    1  UNL1        0.0844
     10 C         140.3506  139.9852  163.9919 C.ar    1  UNL1        0.0380
     11 C         140.5324  139.5573  162.5658 C.ar    1  UNL1        0.0833
     12 N         141.0779  138.2737  158.2873 N.pl3   1  UNL1       -0.2866
     13 C         139.8943  137.8262  157.4818 C.3     1  UNL1        0.1096
     14 C         140.0762  137.3984  156.0557 C.3     1  UNL1        0.0939
     15 N         141.4416  137.4181  155.4351 N.3     1  UNL1       -0.2698
     16 C         142.6252  137.8656  156.2405 C.3     1  UNL1        0.0939
     17 C         142.4433  138.2934  157.6667 C.3     1  UNL1        0.1096
     18 C         141.6234  136.9902  154.0089 C.3     1  UNL1        0.0722
     19 C         142.1306  135.6133  153.6978 C.3     1  UNL1        0.0188
     20 C         140.4520  139.4494  166.5321 C.ar    1  UNL1        0.0371
     21 C         141.6289  139.9347  167.3254 C.ar    1  UNL1        0.0078
     22 C         141.4471  140.3625  168.7516 C.ar    1  UNL1        0.0578
     23 C         140.0883  140.3050  169.3844 C.ar    1  UNL1        0.2250
     24 N         138.9114  139.8197  168.5911 N.ar    1  UNL1       -0.2101
     25 C         139.0932  139.3919  167.1650 C.ar    1  UNL1        0.1035
     26 O         139.9064  140.7329  170.8106 O.3     1  UNL1       -0.4561
     27 C         140.7607  141.8263  171.3803 C.3     1  UNL1        0.2542
     28 C         139.7840  141.9125  161.7637 C.3     1  UNL1        0.1412
     29 C         138.3166  142.2106  161.8522 C.3     1  UNL1        0.1666
     30 O         137.8366  143.6314  161.8189 O.3     1  UNL1       -0.3517
     31 C         138.1610  144.5594  162.9518 C.3     1  UNL1        0.1422
     32 C         138.5870  144.8702  165.4958 C.3     1  UNL1        0.0027
     33 C         137.9441  144.1176  164.3688 C.3     1  UNL1        0.0321
@<TRIPOS>BOND
     1    32    33    1
     2    33    31    1
     3    31    30    1
     4    30    29    1
     5    29    28    1
     6    28     1    1
     7     1     2   ar
     8     2     3    2
     9     2     4   ar
    10     4    12    1
    11    12    13    1
    12    13    14    1
    13    14    15    1
    14    15    18    1
    15    18    19    1
    16    15    16    1
    17    16    17    1
    18     4     5   ar
    19     5     6   ar
    20     6     7   ar
    21     7     8   ar
    22     8     9   ar
    23     9    20    1
    24    20    21   ar
    25    21    22   ar
    26    22    23   ar
    27    23    26    1
    28    26    27    1
    29    23    24   ar
    30    24    25   ar
    31     9    10   ar
    32    10    11   ar
    33    11     1   ar
    34    17    12    1
    35    11     6   ar
    36    25    20   ar
@<TRIPOS>MOLECULE
*****
 33 36 0 0 0
SMALL
GASTEIGER

@<TRIPOS>ATOM
      1 N         140.0844  142.4343  161.0248 N.ar    1  UNL1       -0.2891
      2 C         140.0094  143.1529  159.7103 C.ar    1  UNL1        0.2927
      3 O         138.8480  142.9157  158.7910 O.2     1  UNL1       -0.2639
      4 C         141.0957  144.1087  159.3150 C.ar    1  UNL1        0.1889
      5 N         142.2571  144.3459  160.2342 N.ar    1  UNL1       -0.2231
      6 C         142.3321  143.6273  161.5488 C.ar    1  UNL1        0.1178
      7 C         143.4935  143.8644  162.4679 C.ar    1  UNL1        0.1194
      8 N         143.5685  143.1458  163.7824 N.ar    1  UNL1       -0.2421
      9 C         142.4821  142.1900  164.1777 C.ar    1  UNL1        0.0844
     10 C         141.3208  141.9528  163.2585 C.ar    1  UNL1        0.0380
     11 C         141.2458  142.6715  161.9441 C.ar    1  UNL1        0.0833
     12 N         141.0207  144.8274  158.0004 N.pl3   1  UNL1       -0.2866
     13 C         140.0580  145.9634  157.8207 C.3     1  UNL1        0.1096
     14 C         139.9829  146.6820  156.5061 C.3     1  UNL1        0.0939
     15 N         140.8707  146.2645  155.3714 N.3     1  UNL1       -0.2698
     16 C         141.8334  145.1284  155.5512 C.3     1  UNL1        0.0939
     17 C         141.9084  144.4098  156.8657 C.3     1  UNL1        0.1096
     18 C         140.7956  146.9831  154.0569 C.3     1  UNL1        0.0722
     19 C         140.0082  148.2545  153.9410 C.3     1  UNL1        0.0188
     20 C         142.5572  141.4714  165.4923 C.ar    1  UNL1        0.0371
     21 C         142.2472  142.2019  166.7652 C.ar    1  UNL1        0.0078
     22 C         142.3222  141.4832  168.0797 C.ar    1  UNL1        0.0578
     23 C         142.7072  140.0341  168.1213 C.ar    1  UNL1        0.2250
     24 N         143.0172  139.3036  166.8484 N.ar    1  UNL1       -0.2101
     25 C         142.9422  140.0222  165.5339 C.ar    1  UNL1        0.1035
     26 O         142.7823  139.3155  169.4358 O.3     1  UNL1       -0.4561
     27 C         142.9639  140.0924  170.7060 C.3     1  UNL1        0.2542
     28 C         138.9980  141.4785  161.4201 C.3     1  UNL1        0.1412
     29 C         137.7836  141.9808  162.1433 C.3     1  UNL1        0.1666
     30 O         137.4311  143.4380  162.0947 O.3     1  UNL1       -0.3517
     31 C         137.9784  144.3769  163.1286 C.3     1  UNL1        0.1422
     32 C         139.3243  144.2633  165.3480 C.3     1  UNL1        0.0027
     33 C         138.0925  143.9351  164.5576 C.3     1  UNL1        0.0321
@<TRIPOS>BOND
     1    32    33    1
     2    33    31    1
     3    31    30    1
     4    30    29    1
     5    29    28    1
     6    28     1    1
     7     1     2   ar
     8     2     3    2
     9     2     4   ar
    10     4    12    1
    11    12    13    1
    12    13    14    1
    13    14    15    1
    14    15    18    1
    15    18    19    1
    16    15    16    1
    17    16    17    1
    18     4     5   ar
    19     5     6   ar
    20     6     7   ar
    21     7     8   ar
    22     8     9   ar
    23     9    20    1
    24    20    21   ar
    25    21    22   ar
    26    22    23   ar
    27    23    26    1
    28    26    27    1
    29    23    24   ar
    30    24    25   ar
    31     9    10   ar
    32    10    11   ar
    33    11     1   ar
    34    17    12    1
    35    11     6   ar
    36    25    20   ar
@<TRIPOS>MOLECULE
*****
 33 36 0 0 0
SMALL
GASTEIGER

@<TRIPOS>ATOM
      1 N         141.8971  142.7387  161.3142 N.ar    1  UNL1       -0.2891
      2 C         141.8172  143.3120  159.9304 C.ar    1  UNL1        0.2927
      3 O         143.0432  143.3625  159.0675 O.2     1  UNL1       -0.2639
      4 C         140.5114  143.8348  159.4093 C.ar    1  UNL1        0.1889
      5 N         139.2854  143.7844  160.2721 N.ar    1  UNL1       -0.2231
      6 C         139.3652  143.2111  161.6560 C.ar    1  UNL1        0.1178
      7 C         138.1392  143.1606  162.5187 C.ar    1  UNL1        0.1194
      8 N         138.2191  142.5873  163.9025 N.ar    1  UNL1       -0.2421
      9 C         139.5249  142.0645  164.4236 C.ar    1  UNL1        0.0844
     10 C         140.7509  142.1150  163.5608 C.ar    1  UNL1        0.0380
     11 C         140.6710  142.6883  162.1770 C.ar    1  UNL1        0.0833
     12 N         140.4316  144.4081  158.0255 N.pl3   1  UNL1       -0.2866
     13 C         140.4390  145.8950  157.8281 C.3     1  UNL1        0.1096
     14 C         140.3592  146.4683  156.4442 C.3     1  UNL1        0.0939
     15 N         140.2719  145.5546  155.2578 N.3     1  UNL1       -0.2698
     16 C         140.2645  144.0677  155.4552 C.3     1  UNL1        0.0939
     17 C         140.3443  143.4945  156.8391 C.3     1  UNL1        0.1096
     18 C         140.1921  146.1279  153.8740 C.3     1  UNL1        0.0722
     19 C         140.4718  147.5842  153.6482 C.3     1  UNL1        0.0188
     20 C         139.6047  141.4912  165.8074 C.ar    1  UNL1        0.0371
     21 C         140.2851  142.2612  166.9002 C.ar    1  UNL1        0.0078
     22 C         140.3649  141.6879  168.2840 C.ar    1  UNL1        0.0578
     23 C         139.7643  140.3446  168.5751 C.ar    1  UNL1        0.2250
     24 N         139.0839  139.5745  167.4823 N.ar    1  UNL1       -0.2101
     25 C         139.0042  140.1479  166.0985 C.ar    1  UNL1        0.1035
     26 O         139.8441  139.7713  169.9589 O.3     1  UNL1       -0.4561
     27 C         140.6002  140.4999  171.0301 C.3     1  UNL1        0.2542
     28 C         143.2029  142.2159  161.8352 C.3     1  UNL1        0.1412
     29 C         144.3364  143.1614  162.1023 C.3     1  UNL1        0.1666
     30 O         144.0577  144.5328  162.6425 O.3     1  UNL1       -0.3517
     31 C         143.6937  144.7103  164.0868 C.3     1  UNL1        0.1422
     32 C         143.7639  142.6862  165.7142 C.3     1  UNL1        0.0027
     33 C         144.4044  143.9161  165.1424 C.3     1  UNL1        0.0321
@<TRIPOS>BOND
     1    32    33    1
     2    33    31    1
     3    31    30    1
     4    30    29    1
     5    29    28    1
     6    28     1    1
     7     1     2   ar
     8     2     3    2
     9     2     4   ar
    10     4    12    1
    11    12    13    1
    12    13    14    1
    13    14    15    1
    14    15    18    1
    15    18    19    1
    16    15    16    1
    17    16    17    1
    18     4     5   ar
    19     5     6   ar
    20     6     7   ar
    21     7     8   ar
    22     8     9   ar
    23     9    20    1
    24    20    21   ar
    25    21    22   ar
    26    22    23   ar
    27    23    26    1
    28    26    27    1
    29    23    24   ar
    30    24    25   ar
    31     9    10   ar
    32    10    11   ar
    33    11     1   ar
    34    17    12    1
    35    11     6   ar
    36    25    20   ar
@<TRIPOS>MOLECULE
*****
 33 36 0 0 0
SMALL
GASTEIGER

@<TRIPOS>ATOM
      1 N         138.6400  142.0794  160.9910 N.ar    1  UNL1       -0.2891
      2 C         138.4338  142.0216  159.5064 C.ar    1  UNL1        0.2927
      3 O         138.4729  143.2821  158.6941 O.2     1  UNL1       -0.2639
      4 C         138.1886  140.7034  158.8341 C.ar    1  UNL1        0.1889
      5 N         138.1496  139.4429  159.6463 N.ar    1  UNL1       -0.2231
      6 C         138.3557  139.5007  161.1310 C.ar    1  UNL1        0.1178
      7 C         138.3167  138.2403  161.9432 C.ar    1  UNL1        0.1194
      8 N         138.5228  138.2982  163.4279 N.ar    1  UNL1       -0.2421
      9 C         138.7680  139.6164  164.1002 C.ar    1  UNL1        0.0844
     10 C         138.8071  140.8768  163.2880 C.ar    1  UNL1        0.0380
     11 C         138.6009  140.8190  161.8034 C.ar    1  UNL1        0.0833
     12 N         137.9825  140.6456  157.3494 N.pl3   1  UNL1       -0.2866
     13 C         139.1136  140.2430  156.4502 C.3     1  UNL1        0.1096
     14 C         138.9074  140.1853  154.9656 C.3     1  UNL1        0.0939
     15 N         137.5701  140.5300  154.3802 N.3     1  UNL1       -0.2698
     16 C         136.4390  140.9325  155.2793 C.3     1  UNL1        0.0939
     17 C         136.6452  140.9903  156.7639 C.3     1  UNL1        0.1096
     18 C         137.3640  140.4722  152.8955 C.3     1  UNL1        0.0722
     19 C         136.0449  140.8740  152.3052 C.3     1  UNL1        0.0188
     20 C         138.9741  139.6742  165.5849 C.ar    1  UNL1        0.0371
     21 C         140.1609  140.3970  166.1498 C.ar    1  UNL1        0.0078
     22 C         140.3670  140.4548  167.6345 C.ar    1  UNL1        0.0578
     23 C         139.3864  139.7898  168.5542 C.ar    1  UNL1        0.2250
     24 N         138.1996  139.0669  167.9893 N.ar    1  UNL1       -0.2101
     25 C         137.9935  139.0092  166.5047 C.ar    1  UNL1        0.1035
     26 O         139.5925  139.8475  170.0389 O.3     1  UNL1       -0.4561
     27 C         140.2424  141.0484  170.6596 C.3     1  UNL1        0.2542
     28 C         138.8852  143.3977  161.6634 C.3     1  UNL1        0.1412
     29 C         140.2796  143.9418  161.7612 C.3     1  UNL1        0.1666
     30 O         140.7580  144.5526  163.0450 O.3     1  UNL1       -0.3517
     31 C         140.8143  143.7244  164.2944 C.3     1  UNL1        0.1422
     32 C         138.5593  144.7311  165.1015 C.3     1  UNL1        0.0027
     33 C         139.7980  143.9316  165.3779 C.3     1  UNL1        0.0321
@<TRIPOS>BOND
     1    32    33    1
     2    33    31    1
     3    31    30    1
     4    30    29    1
     5    29    28    1
     6    28     1    1
     7     1     2   ar
     8     2     3    2
     9     2     4   ar
    10     4    12    1
    11    12    13    1
    12    13    14    1
    13    14    15    1
    14    15    18    1
    15    18    19    1
    16    15    16    1
    17    16    17    1
    18     4     5   ar
    19     5     6   ar
    20     6     7   ar
    21     7     8   ar
    22     8     9   ar
    23     9    20    1
    24    20    21   ar
    25    21    22   ar
    26    22    23   ar
    27    23    26    1
    28    26    27    1
    29    23    24   ar
    30    24    25   ar
    31     9    10   ar
    32    10    11   ar
    33    11     1   ar
    34    17    12    1
    35    11     6   ar
    36    25    20   ar
@<TRIPOS>MOLECULE
*****
 33 36 0 0 0
SMALL
GASTEIGER

@<TRIPOS>ATOM
      1 N         143.4421  139.7168  161.4220 N.ar    1  UNL1       -0.2891
      2 C         143.3791  139.3057  159.9809 C.ar    1  UNL1        0.2927
      3 O         144.3020  139.9358  158.9801 O.2     1  UNL1       -0.2639
      4 C         142.3933  138.2644  159.5403 C.ar    1  UNL1        0.1889
      5 N         141.4705  137.6343  160.5410 N.ar    1  UNL1       -0.2231
      6 C         141.5334  138.0455  161.9822 C.ar    1  UNL1        0.1178
      7 C         140.6105  137.4154  162.9828 C.ar    1  UNL1        0.1194
      8 N         140.6735  137.8265  164.4240 N.ar    1  UNL1       -0.2421
      9 C         141.6593  138.8677  164.8645 C.ar    1  UNL1        0.0844
     10 C         142.5821  139.4978  163.8639 C.ar    1  UNL1        0.0380
     11 C         142.5192  139.0867  162.4227 C.ar    1  UNL1        0.0833
     12 N         142.3304  137.8533  158.0991 N.pl3   1  UNL1       -0.2866
     13 C         142.9371  136.5527  157.6630 C.3     1  UNL1        0.1096
     14 C         142.8742  136.1417  156.2218 C.3     1  UNL1        0.0939
     15 N         142.2045  137.0312  155.2167 N.3     1  UNL1       -0.2698
     16 C         141.5977  138.3318  155.6528 C.3     1  UNL1        0.0939
     17 C         141.6607  138.7429  157.0940 C.3     1  UNL1        0.1096
     18 C         142.1415  136.6201  153.7755 C.3     1  UNL1        0.0722
     19 C         141.9150  135.1818  153.4151 C.3     1  UNL1        0.0188
     20 C         141.7222  139.2788  166.3057 C.ar    1  UNL1        0.0371
     21 C         140.5734  140.0176  166.9258 C.ar    1  UNL1        0.0078
     22 C         140.6364  140.4287  168.3670 C.ar    1  UNL1        0.0578
     23 C         141.8481  140.1010  169.1881 C.ar    1  UNL1        0.2250
     24 N         142.9970  139.3622  168.5680 N.ar    1  UNL1       -0.2101
     25 C         142.9340  138.9512  167.1269 C.ar    1  UNL1        0.1035
     26 O         141.9111  140.5121  170.6293 O.3     1  UNL1       -0.4561
     27 C         140.9693  141.5553  171.1534 C.3     1  UNL1        0.2542
     28 C         144.4279  140.7580  161.8625 C.3     1  UNL1        0.1412
     29 C         144.1555  142.2089  161.5964 C.3     1  UNL1        0.1666
     30 O         144.7452  143.2590  162.4906 O.3     1  UNL1       -0.3517
     31 C         144.1017  143.5685  163.8097 C.3     1  UNL1        0.1422
     32 C         143.4054  142.5473  166.0949 C.3     1  UNL1        0.0027
     33 C         144.4302  142.7410  165.0169 C.3     1  UNL1        0.0321
@<TRIPOS>BOND
     1    32    33    1
     2    33    31    1
     3    31    30    1
     4    30    29    1
     5    29    28    1
     6    28     1    1
     7     1     2   ar
     8     2     3    2
     9     2     4   ar
    10     4    12    1
    11    12    13    1
    12    13    14    1
    13    14    15    1
    14    15    18    1
    15    18    19    1
    16    15    16    1
    17    16    17    1
    18     4     5   ar
    19     5     6   ar
    20     6     7   ar
    21     7     8   ar
    22     8     9   ar
    23     9    20    1
    24    20    21   ar
    25    21    22   ar
    26    22    23   ar
    27    23    26    1
    28    26    27    1
    29    23    24   ar
    30    24    25   ar
    31     9    10   ar
    32    10    11   ar
    33    11     1   ar
    34    17    12    1
    35    11     6   ar
    36    25    20   ar
@<TRIPOS>MOLECULE
*****
 33 36 0 0 0
SMALL
GASTEIGER

@<TRIPOS>ATOM
      1 N         141.9104  143.0628  161.4987 N.ar    1  UNL1       -0.2891
      2 C         141.8337  143.5990  160.0999 C.ar    1  UNL1        0.2927
      3 O         143.0927  143.9021  159.3428 O.2     1  UNL1       -0.2639
      4 C         140.4981  143.8320  159.4581 C.ar    1  UNL1        0.1889
      5 N         139.2392  143.5289  160.2151 N.ar    1  UNL1       -0.2231
      6 C         139.3158  142.9928  161.6140 C.ar    1  UNL1        0.1178
      7 C         138.0568  142.6897  162.3710 C.ar    1  UNL1        0.1194
      8 N         138.1335  142.1535  163.7698 N.ar    1  UNL1       -0.2421
      9 C         139.4691  141.9205  164.4116 C.ar    1  UNL1        0.0844
     10 C         140.7280  142.2236  163.6545 C.ar    1  UNL1        0.0380
     11 C         140.6514  142.7597  162.2558 C.ar    1  UNL1        0.0833
     12 N         140.4216  144.3682  158.0593 N.pl3   1  UNL1       -0.2866
     13 C         140.3370  145.8476  157.8267 C.3     1  UNL1        0.1096
     14 C         140.2604  146.3837  156.4279 C.3     1  UNL1        0.0939
     15 N         140.2684  145.4404  155.2617 N.3     1  UNL1       -0.2698
     16 C         140.3529  143.9609  155.4942 C.3     1  UNL1        0.0939
     17 C         140.4295  143.4249  156.8930 C.3     1  UNL1        0.1096
     18 C         140.1918  145.9765  153.8628 C.3     1  UNL1        0.0722
     19 C         140.6953  147.3566  153.5599 C.3     1  UNL1        0.0188
     20 C         139.5457  141.3843  165.8104 C.ar    1  UNL1        0.0371
     21 C         140.2466  142.1712  166.8779 C.ar    1  UNL1        0.0078
     22 C         140.3232  141.6350  168.2767 C.ar    1  UNL1        0.0578
     23 C         139.6988  140.3120  168.6081 C.ar    1  UNL1        0.2250
     24 N         138.9979  139.5251  167.5405 N.ar    1  UNL1       -0.2101
     25 C         138.9213  140.0613  166.1417 C.ar    1  UNL1        0.1035
     26 O         139.7754  139.7758  170.0068 O.3     1  UNL1       -0.4561
     27 C         140.6604  140.4422  171.0180 C.3     1  UNL1        0.2542
     28 C         143.2460  142.8298  162.1404 C.3     1  UNL1        0.1412
     29 C         144.1142  141.6983  161.6757 C.3     1  UNL1        0.1666
     30 O         145.4168  141.4202  162.3654 O.3     1  UNL1       -0.3517
     31 C         145.4319  141.0522  163.8195 C.3     1  UNL1        0.1422
     32 C         143.8441  139.4637  165.1254 C.3     1  UNL1        0.0027
     33 C         145.0426  139.6681  164.2469 C.3     1  UNL1        0.0321
@<TRIPOS>BOND
     1    32    33    1
     2    33    31    1
     3    31    30    1
     4    30    29    1
     5    29    28    1
     6    28     1    1
     7     1     2   ar
     8     2     3    2
     9     2     4   ar
    10     4    12    1
    11    12    13    1
    12    13    14    1
    13    14    15    1
    14    15    18    1
    15    18    19    1
    16    15    16    1
    17    16    17    1
    18     4     5   ar
    19     5     6   ar
    20     6     7   ar
    21     7     8   ar
    22     8     9   ar
    23     9    20    1
    24    20    21   ar
    25    21    22   ar
    26    22    23   ar
    27    23    26    1
    28    26    27    1
    29    23    24   ar
    30    24    25   ar
    31     9    10   ar
    32    10    11   ar
    33    11     1   ar
    34    17    12    1
    35    11     6   ar
    36    25    20   ar
@<TRIPOS>MOLECULE
*****
 33 36 0 0 0
SMALL
GASTEIGER

@<TRIPOS>ATOM
      1 N         142.2906  143.1436  161.6338 N.ar    1  UNL1       -0.2891
      2 C         142.8074  142.9194  160.2436 C.ar    1  UNL1        0.2927
      3 O         142.2671  143.7298  159.1028 O.2     1  UNL1       -0.2639
      4 C         143.8645  141.8849  159.9942 C.ar    1  UNL1        0.1889
      5 N         144.4049  141.0745  161.1349 N.ar    1  UNL1       -0.2231
      6 C         143.8880  141.2987  162.5252 C.ar    1  UNL1        0.1178
      7 C         144.4284  140.4883  163.6659 C.ar    1  UNL1        0.1194
      8 N         143.9115  140.7124  165.0561 N.ar    1  UNL1       -0.2421
      9 C         142.8544  141.7470  165.3055 C.ar    1  UNL1        0.0844
     10 C         142.3141  142.5573  164.1648 C.ar    1  UNL1        0.0380
     11 C         142.8309  142.3332  162.7746 C.ar    1  UNL1        0.0833
     12 N         144.3814  141.6608  158.6039 N.pl3   1  UNL1       -0.2866
     13 C         145.4759  142.5311  158.0613 C.3     1  UNL1        0.1096
     14 C         145.9927  142.3069  156.6711 C.3     1  UNL1        0.0939
     15 N         145.4149  141.2125  155.8236 N.3     1  UNL1       -0.2698
     16 C         144.3204  140.3422  156.3662 C.3     1  UNL1        0.0939
     17 C         143.8036  140.5663  157.7564 C.3     1  UNL1        0.1096
     18 C         145.9317  140.9884  154.4333 C.3     1  UNL1        0.0722
     19 C         147.1216  141.7585  153.9423 C.3     1  UNL1        0.0188
     20 C         142.3376  141.9711  166.6958 C.ar    1  UNL1        0.0371
     21 C         143.2867  142.3330  167.7995 C.ar    1  UNL1        0.0078
     22 C         142.7698  142.5572  169.1897 C.ar    1  UNL1        0.0578
     23 C         141.3039  142.4193  169.4762 C.ar    1  UNL1        0.2250
     24 N         140.3548  142.0573  168.3724 N.ar    1  UNL1       -0.2101
     25 C         140.8717  141.8332  166.9822 C.ar    1  UNL1        0.1035
     26 O         140.7871  142.6434  170.8663 O.3     1  UNL1       -0.4561
     27 C         139.3943  143.1600  171.0745 C.3     1  UNL1        0.2542
     28 C         141.2334  144.1781  161.8832 C.3     1  UNL1        0.1412
     29 C         139.7931  143.8592  161.6116 C.3     1  UNL1        0.1666
     30 O         138.7159  144.7833  162.0970 O.3     1  UNL1       -0.3517
     31 C         137.7468  144.3210  163.1444 C.3     1  UNL1        0.1422
     32 C         138.8847  144.8301  165.4239 C.3     1  UNL1        0.0027
     33 C         138.2501  143.8540  164.4781 C.3     1  UNL1        0.0321
@<TRIPOS>BOND
     1    32    33    1
     2    33    31    1
     3    31    30    1
     4    30    29    1
     5    29    28    1
     6    28     1    1
     7     1     2   ar
     8     2     3    2
     9     2     4   ar
    10     4    12    1
    11    12    13    1
    12    13    14    1
    13    14    15    1
    14    15    18    1
    15    18    19    1
    16    15    16    1
    17    16    17    1
    18     4     5   ar
    19     5     6   ar
    20     6     7   ar
    21     7     8   ar
    22     8     9   ar
    23     9    20    1
    24    20    21   ar
    25    21    22   ar
    26    22    23   ar
    27    23    26    1
    28    26    27    1
    29    23    24   ar
    30    24    25   ar
    31     9    10   ar
    32    10    11   ar
    33    11     1   ar
    34    17    12    1
    35    11     6   ar
    36    25    20   ar
@<TRIPOS>MOLECULE
*****
 33 36 0 0 0
SMALL
GASTEIGER

@<TRIPOS>ATOM
      1 N         140.2763  141.3569  161.3562 N.ar    1  UNL1       -0.2891
      2 C         140.1555  140.9807  159.9092 C.ar    1  UNL1        0.2927
      3 O         140.6497  141.9175  158.8469 O.2     1  UNL1       -0.2639
      4 C         139.5406  139.6678  159.5244 C.ar    1  UNL1        0.1889
      5 N         139.0464  138.7311  160.5866 N.ar    1  UNL1       -0.2231
      6 C         139.1672  139.1073  162.0337 C.ar    1  UNL1        0.1178
      7 C         138.6730  138.1706  163.0959 C.ar    1  UNL1        0.1194
      8 N         138.7938  138.5468  164.5428 N.ar    1  UNL1       -0.2421
      9 C         139.4088  139.8597  164.9276 C.ar    1  UNL1        0.0844
     10 C         139.9029  140.7964  163.8654 C.ar    1  UNL1        0.0380
     11 C         139.7821  140.4202  162.4185 C.ar    1  UNL1        0.0833
     12 N         139.4198  139.2916  158.0773 N.pl3   1  UNL1       -0.2866
     13 C         140.1147  138.0670  157.5602 C.3     1  UNL1        0.1096
     14 C         139.9939  137.6909  156.1132 C.3     1  UNL1        0.0939
     15 N         139.1782  138.5394  155.1833 N.3     1  UNL1       -0.2698
     16 C         138.4834  139.7640  155.7003 C.3     1  UNL1        0.0939
     17 C         138.6042  140.1401  157.1474 C.3     1  UNL1        0.1096
     18 C         139.0574  138.1632  153.7362 C.3     1  UNL1        0.0722
     19 C         139.4128  136.7760  153.2897 C.3     1  UNL1        0.0188
     20 C         139.5295  140.2359  166.3747 C.ar    1  UNL1        0.0371
     21 C         140.2852  141.4704  166.7682 C.ar    1  UNL1        0.0078
     22 C         140.4059  141.8466  168.2153 C.ar    1  UNL1        0.0578
     23 C         139.7710  140.9882  169.2688 C.ar    1  UNL1        0.2250
     24 N         139.0153  139.7536  168.8753 N.ar    1  UNL1       -0.2101
     25 C         138.8946  139.3774  167.4283 C.ar    1  UNL1        0.1035
     26 O         139.8918  141.3643  170.7158 O.3     1  UNL1       -0.4561
     27 C         141.2186  141.7883  171.2723 C.3     1  UNL1        0.2542
     28 C         140.8913  142.6699  161.7410 C.3     1  UNL1        0.1412
     29 C         140.0552  143.9153  161.7513 C.3     1  UNL1        0.1666
     30 O         138.5611  143.8163  161.6632 O.3     1  UNL1       -0.3517
     31 C         137.7577  143.4891  162.8869 C.3     1  UNL1        0.1422
     32 C         138.9102  144.3958  165.0315 C.3     1  UNL1        0.0027
     33 C         137.7664  144.4220  164.0615 C.3     1  UNL1        0.0321
@<TRIPOS>BOND
     1    32    33    1
     2    33    31    1
     3    31    30    1
     4    30    29    1
     5    29    28    1
     6    28     1    1
     7     1     2   ar
     8     2     3    2
     9     2     4   ar
    10     4    12    1
    11    12    13    1
    12    13    14    1
    13    14    15    1
    14    15    18    1
    15    18    19    1
    16    15    16    1
    17    16    17    1
    18     4     5   ar
    19     5     6   ar
    20     6     7   ar
    21     7     8   ar
    22     8     9   ar
    23     9    20    1
    24    20    21   ar
    25    21    22   ar
    26    22    23   ar
    27    23    26    1
    28    26    27    1
    29    23    24   ar
    30    24    25   ar
    31     9    10   ar
    32    10    11   ar
    33    11     1   ar
    34    17    12    1
    35    11     6   ar
    36    25    20   ar
