@<TRIPOS>MOLECULE
*****
 31 34 0 0 0
SMALL
GASTEIGER

@<TRIPOS>ATOM
      1 N         139.4479  140.7146  167.4062 N.pl3   1  UNL1       -0.3363
      2 H         138.5595  140.5829  167.8094 H       1  UNL1        0.1465
      3 C         140.6741  140.2210  168.1154 C.2     1  UNL1        0.0457
      4 C         140.8480  140.4816  169.5823 C.2     1  UNL1        0.1096
      5 C         142.0741  139.9880  170.2916 C.2     1  UNL1        0.2410
      6 N         143.1263  139.2339  169.5339 N.2     1  UNL1       -0.0338
      7 C         142.9524  138.9734  168.0669 C.2     1  UNL1        0.3606
      8 N         143.8135  138.2637  167.0645 N.2     1  UNL1       -0.0343
      9 C         143.1197  138.3187  165.7358 C.2     1  UNL1        0.2321
     10 C         141.8296  139.0623  165.9170 C.2     1  UNL1        0.0421
     11 C         141.7263  139.4669  167.3577 C.3     1  UNL1        0.1732
     12 C         139.7957  141.2357  170.3400 C.2     1  UNL1        0.2474
     13 N         140.1568  142.4923  171.0754 N.am    1  UNL1       -0.3252
     14 O         138.3826  140.7333  170.3623 O.2     1  UNL1       -0.2702
     15 H         141.0843  142.8220  171.0607 H       1  UNL1        0.1453
     16 H         139.4662  142.9873  171.5727 H       1  UNL1        0.1453
     17 C         138.1621  139.5370  164.9649 C.3     1  UNL1        0.0035
     18 C         138.9325  140.8199  164.8620 C.3     1  UNL1        0.0377
     19 C         139.0599  141.5141  163.5384 C.3     1  UNL1        0.0937
     20 N         139.8304  142.7971  163.4355 N.pl3   1  UNL1       -0.2931
     21 C         140.4733  143.3858  164.6560 C.3     1  UNL1        0.0939
     22 C         140.3458  142.6917  165.9797 C.3     1  UNL1        0.0410
     23 C         139.5754  141.4088  166.0826 C.3     1  UNL1        0.0721
     24 C         139.9578  143.4912  162.1118 C.ar    1  UNL1        0.1317
     25 C         139.5031  142.8046  160.8581 C.ar    1  UNL1        0.0350
     26 C         139.6305  143.4987  159.5345 C.ar    1  UNL1        0.0147
     27 C         140.2127  144.8794  159.4646 C.ar    1  UNL1        0.0877
     28 C         140.6675  145.5660  160.7183 C.ar    1  UNL1        0.1105
     29 N         140.5400  144.8718  162.0420 N.ar    1  UNL1       -0.2285
     30 C         140.3401  145.5734  158.1410 C.1     1  UNL1        0.1020
     31 N         140.4675  146.2675  156.8173 N.1     1  UNL1       -0.1908
@<TRIPOS>BOND
     1    18    17    1
     2    18    19    1
     3    19    20    1
     4    20    24    1
     5    24    25   ar
     6    25    26   ar
     7    26    27   ar
     8    27    30    1
     9    30    31    3
    10    27    28   ar
    11    28    29   ar
    12    20    21    1
    13    21    22    1
    14    22    23    1
    15    23     1    1
    16     1     3    1
    17     3     4    2
    18     4    12    1
    19    12    13   am
    20    12    14    2
    21     4     5    1
    22     5     6    2
    23     6     7    1
    24     7     8    2
    25     8     9    1
    26     9    10    2
    27    10    11    1
    28    23    18    1
    29    11     3    1
    30    29    24   ar
    31    11     7    1
    32     1     2    1
    33    13    15    1
    34    13    16    1
@<TRIPOS>MOLECULE
*****
 31 34 0 0 0
SMALL
GASTEIGER

@<TRIPOS>ATOM
      1 N         141.3035  142.0564  167.7157 N.pl3   1  UNL1       -0.3363
      2 H         142.1183  142.2440  168.2354 H       1  UNL1        0.1465
      3 C         140.2061  141.2275  168.3146 C.2     1  UNL1        0.0457
      4 C         139.7716  141.4681  169.7300 C.2     1  UNL1        0.1096
      5 C         138.6742  140.6392  170.3289 C.2     1  UNL1        0.2410
      6 N         138.0113  139.5697  169.5125 N.2     1  UNL1       -0.0338
      7 C         138.4459  139.3290  168.0970 C.2     1  UNL1        0.3606
      8 N         137.9814  138.3535  167.0566 N.2     1  UNL1       -0.0343
      9 C         138.7916  138.5794  165.8147 C.2     1  UNL1        0.2321
     10 C         139.7570  139.6947  166.0876 C.2     1  UNL1        0.0421
     11 C         139.5432  140.1579  167.4982 C.3     1  UNL1        0.1732
     12 C         140.4345  142.5377  170.5464 C.2     1  UNL1        0.2474
     13 N         140.1157  143.9813  170.2920 N.am    1  UNL1       -0.3252
     14 O         141.4160  142.1638  171.6172 O.2     1  UNL1       -0.2702
     15 H         139.4714  144.2266  169.5892 H       1  UNL1        0.1453
     16 H         140.5507  144.6833  170.8278 H       1  UNL1        0.1453
     17 C         143.4016  141.4724  165.6525 C.3     1  UNL1        0.0035
     18 C         142.2085  142.3075  165.2934 C.3     1  UNL1        0.0377
     19 C         142.0644  142.8506  163.9026 C.3     1  UNL1        0.0937
     20 N         140.8712  143.6857  163.5434 N.pl3   1  UNL1       -0.2931
     21 C         139.8222  143.9777  164.5749 C.3     1  UNL1        0.0939
     22 C         139.9662  143.4346  165.9658 C.3     1  UNL1        0.0410
     23 C         141.1594  142.5995  166.3249 C.3     1  UNL1        0.0721
     24 C         140.7272  144.2288  162.1526 C.ar    1  UNL1        0.1317
     25 C         140.1036  145.5755  161.9342 C.ar    1  UNL1        0.0350
     26 C         139.9595  146.1186  160.5434 C.ar    1  UNL1        0.0147
     27 C         140.4391  145.3150  159.3711 C.ar    1  UNL1        0.0877
     28 C         141.0627  143.9684  159.5894 C.ar    1  UNL1        0.1105
     29 N         141.2067  143.4253  160.9803 N.ar    1  UNL1       -0.2285
     30 C         140.2950  145.8581  157.9803 C.1     1  UNL1        0.1020
     31 N         140.1510  146.4013  156.5895 N.1     1  UNL1       -0.1908
@<TRIPOS>BOND
     1    18    17    1
     2    18    19    1
     3    19    20    1
     4    20    24    1
     5    24    25   ar
     6    25    26   ar
     7    26    27   ar
     8    27    30    1
     9    30    31    3
    10    27    28   ar
    11    28    29   ar
    12    20    21    1
    13    21    22    1
    14    22    23    1
    15    23     1    1
    16     1     3    1
    17     3     4    2
    18     4    12    1
    19    12    13   am
    20    12    14    2
    21     4     5    1
    22     5     6    2
    23     6     7    1
    24     7     8    2
    25     8     9    1
    26     9    10    2
    27    10    11    1
    28    23    18    1
    29    11     3    1
    30    29    24   ar
    31    11     7    1
    32     1     2    1
    33    13    15    1
    34    13    16    1
@<TRIPOS>MOLECULE
*****
 31 34 0 0 0
SMALL
GASTEIGER

@<TRIPOS>ATOM
      1 N         142.5830  140.5648  166.6544 N.pl3   1  UNL1       -0.3363
      2 H         143.4740  140.1893  166.8396 H       1  UNL1        0.1465
      3 C         141.4747  140.3926  167.6504 C.2     1  UNL1        0.0457
      4 C         141.6685  140.8317  169.0715 C.2     1  UNL1        0.1096
      5 C         140.5602  140.6595  170.0675 C.2     1  UNL1        0.2410
      6 N         139.2581  140.0482  169.6424 N.2     1  UNL1       -0.0338
      7 C         139.0643  139.6090  168.2213 C.2     1  UNL1        0.3606
      8 N         137.9004  138.9790  167.5153 N.2     1  UNL1       -0.0343
      9 C         138.2893  138.7618  166.0830 C.2     1  UNL1        0.2321
     10 C         139.6937  139.2576  165.9038 C.2     1  UNL1        0.0421
     11 C         140.1726  139.7812  167.2253 C.3     1  UNL1        0.1732
     12 C         142.9706  141.4431  169.4966 C.2     1  UNL1        0.2474
     13 N         143.7652  140.8196  170.6057 N.am    1  UNL1       -0.3252
     14 O         143.4782  142.6778  168.8127 O.2     1  UNL1       -0.2702
     15 H         143.4320  140.0092  171.0546 H       1  UNL1        0.1453
     16 H         144.6198  141.2208  170.8847 H       1  UNL1        0.1453
     17 C         143.2448  139.2879  164.0216 C.3     1  UNL1        0.0035
     18 C         142.6646  140.6706  164.0597 C.3     1  UNL1        0.0377
     19 C         142.4153  141.4149  162.7815 C.3     1  UNL1        0.0937
     20 N         141.8351  142.7977  162.8197 N.pl3   1  UNL1       -0.2931
     21 C         141.5042  143.4361  164.1360 C.3     1  UNL1        0.0939
     22 C         141.7535  142.6918  165.4143 C.3     1  UNL1        0.0410
     23 C         142.3337  141.3091  165.3761 C.3     1  UNL1        0.0721
     24 C         141.5858  143.5419  161.5414 C.ar    1  UNL1        0.1317
     25 C         142.2704  143.1124  160.2778 C.ar    1  UNL1        0.0350
     26 C         142.0212  143.8566  158.9995 C.ar    1  UNL1        0.0147
     27 C         141.0873  145.0303  158.9849 C.ar    1  UNL1        0.0877
     28 C         140.4026  145.4599  160.2485 C.ar    1  UNL1        0.1105
     29 N         140.6519  144.7156  161.5268 N.ar    1  UNL1       -0.2285
     30 C         140.8380  145.7745  157.7066 C.1     1  UNL1        0.1020
     31 N         140.5888  146.5187  156.4283 N.1     1  UNL1       -0.1908
@<TRIPOS>BOND
     1    18    17    1
     2    18    19    1
     3    19    20    1
     4    20    24    1
     5    24    25   ar
     6    25    26   ar
     7    26    27   ar
     8    27    30    1
     9    30    31    3
    10    27    28   ar
    11    28    29   ar
    12    20    21    1
    13    21    22    1
    14    22    23    1
    15    23     1    1
    16     1     3    1
    17     3     4    2
    18     4    12    1
    19    12    13   am
    20    12    14    2
    21     4     5    1
    22     5     6    2
    23     6     7    1
    24     7     8    2
    25     8     9    1
    26     9    10    2
    27    10    11    1
    28    23    18    1
    29    11     3    1
    30    29    24   ar
    31    11     7    1
    32     1     2    1
    33    13    15    1
    34    13    16    1
@<TRIPOS>MOLECULE
*****
 31 34 0 0 0
SMALL
GASTEIGER

@<TRIPOS>ATOM
      1 N         141.8055  142.2664  166.9585 N.pl3   1  UNL1       -0.3363
      2 H         142.1512  143.1743  167.1177 H       1  UNL1        0.1465
      3 C         141.1230  141.5189  168.0655 C.2     1  UNL1        0.0457
      4 C         141.6067  141.6640  169.4779 C.2     1  UNL1        0.1096
      5 C         140.9242  140.9165  170.5850 C.2     1  UNL1        0.2410
      6 N         139.7580  140.0240  170.2796 N.2     1  UNL1       -0.0338
      7 C         139.2743  139.8790  168.8671 C.2     1  UNL1        0.3606
      8 N         138.1574  139.0783  168.2659 N.2     1  UNL1       -0.0343
      9 C         138.1495  139.3308  166.7874 C.2     1  UNL1        0.2321
     10 C         139.2617  140.2877  166.4748 C.2     1  UNL1        0.0421
     11 C         139.9567  140.6264  167.7602 C.3     1  UNL1        0.1732
     12 C         142.7730  142.5565  169.7833 C.2     1  UNL1        0.2474
     13 N         142.8272  143.3008  171.0846 N.am    1  UNL1       -0.3252
     14 O         143.8849  142.7047  168.7876 O.2     1  UNL1       -0.2702
     15 H         142.0973  143.2035  171.7381 H       1  UNL1        0.1453
     16 H         143.5926  143.8866  171.2850 H       1  UNL1        0.1453
     17 C         140.4667  143.4815  164.5644 C.3     1  UNL1        0.0035
     18 C         141.2918  142.2381  164.4119 C.3     1  UNL1        0.0377
     19 C         141.4475  141.6022  163.0623 C.3     1  UNL1        0.0937
     20 N         142.2726  140.3587  162.9097 N.pl3   1  UNL1       -0.2931
     21 C         142.9419  139.7513  164.1067 C.3     1  UNL1        0.0939
     22 C         142.7862  140.3871  165.4564 C.3     1  UNL1        0.0410
     23 C         141.9612  141.6305  165.6089 C.3     1  UNL1        0.0721
     24 C         142.4283  139.7229  161.5601 C.ar    1  UNL1        0.1317
     25 C         142.2558  140.5468  160.3185 C.ar    1  UNL1        0.0350
     26 C         142.4115  139.9110  158.9689 C.ar    1  UNL1        0.0147
     27 C         142.7396  138.4513  158.8609 C.ar    1  UNL1        0.0877
     28 C         142.9121  137.6274  160.1024 C.ar    1  UNL1        0.1105
     29 N         142.7564  138.2632  161.4521 N.ar    1  UNL1       -0.2285
     30 C         142.8953  137.8155  157.5112 C.1     1  UNL1        0.1020
     31 N         143.0509  137.1797  156.1616 N.1     1  UNL1       -0.1908
@<TRIPOS>BOND
     1    18    17    1
     2    18    19    1
     3    19    20    1
     4    20    24    1
     5    24    25   ar
     6    25    26   ar
     7    26    27   ar
     8    27    30    1
     9    30    31    3
    10    27    28   ar
    11    28    29   ar
    12    20    21    1
    13    21    22    1
    14    22    23    1
    15    23     1    1
    16     1     3    1
    17     3     4    2
    18     4    12    1
    19    12    13   am
    20    12    14    2
    21     4     5    1
    22     5     6    2
    23     6     7    1
    24     7     8    2
    25     8     9    1
    26     9    10    2
    27    10    11    1
    28    23    18    1
    29    11     3    1
    30    29    24   ar
    31    11     7    1
    32     1     2    1
    33    13    15    1
    34    13    16    1
@<TRIPOS>MOLECULE
*****
 31 34 0 0 0
SMALL
GASTEIGER

@<TRIPOS>ATOM
      1 N         138.8748  139.9956  160.4435 N.pl3   1  UNL1       -0.3363
      2 H         138.0092  139.6429  160.1342 H       1  UNL1        0.1465
      3 C         139.9726  140.2606  159.4562 C.2     1  UNL1        0.0457
      4 C         139.8221  141.3572  158.4438 C.2     1  UNL1        0.1096
      5 C         140.9199  141.6222  157.4566 C.2     1  UNL1        0.2410
      6 N         142.1681  140.7908  157.4818 N.2     1  UNL1       -0.0338
      7 C         142.3185  139.6942  158.4943 C.2     1  UNL1        0.3606
      8 N         143.4257  138.7175  158.7590 N.2     1  UNL1       -0.0343
      9 C         143.0123  137.8487  159.9097 C.2     1  UNL1        0.2321
     10 C         141.6495  138.2886  160.3563 C.2     1  UNL1        0.0421
     11 C         141.2208  139.4292  159.4814 C.3     1  UNL1        0.1732
     12 C         138.5739  142.1886  158.4186 C.2     1  UNL1        0.2474
     13 N         137.6755  142.1564  157.2178 N.am    1  UNL1       -0.3252
     14 O         138.2242  143.0522  159.5941 O.2     1  UNL1       -0.2702
     15 H         137.9051  141.5895  156.4463 H       1  UNL1        0.1453
     16 H         136.8562  142.7021  157.2013 H       1  UNL1        0.1453
     17 C         138.4913  137.8021  162.4539 C.3     1  UNL1        0.0035
     18 C         138.9040  139.1711  162.9071 C.3     1  UNL1        0.0377
     19 C         139.1250  139.4434  164.3655 C.3     1  UNL1        0.0937
     20 N         139.5378  140.8125  164.8187 N.pl3   1  UNL1       -0.2931
     21 C         139.7295  141.9092  163.8136 C.3     1  UNL1        0.0939
     22 C         139.5085  141.6369  162.3551 C.3     1  UNL1        0.0410
     23 C         139.0958  140.2679  161.9019 C.3     1  UNL1        0.0721
     24 C         139.7588  141.0847  166.2772 C.ar    1  UNL1        0.1317
     25 C         140.3660  142.3850  166.7138 C.ar    1  UNL1        0.0350
     26 C         140.5870  142.6573  168.1722 C.ar    1  UNL1        0.0147
     27 C         140.2008  141.6293  169.1940 C.ar    1  UNL1        0.0877
     28 C         139.5935  140.3290  168.7575 C.ar    1  UNL1        0.1105
     29 N         139.3725  140.0568  167.2989 N.ar    1  UNL1       -0.2285
     30 C         140.4218  141.9016  170.6524 C.1     1  UNL1        0.1020
     31 N         140.6428  142.1739  172.1109 N.1     1  UNL1       -0.1908
@<TRIPOS>BOND
     1    18    17    1
     2    18    19    1
     3    19    20    1
     4    20    24    1
     5    24    25   ar
     6    25    26   ar
     7    26    27   ar
     8    27    30    1
     9    30    31    3
    10    27    28   ar
    11    28    29   ar
    12    20    21    1
    13    21    22    1
    14    22    23    1
    15    23     1    1
    16     1     3    1
    17     3     4    2
    18     4    12    1
    19    12    13   am
    20    12    14    2
    21     4     5    1
    22     5     6    2
    23     6     7    1
    24     7     8    2
    25     8     9    1
    26     9    10    2
    27    10    11    1
    28    23    18    1
    29    11     3    1
    30    29    24   ar
    31    11     7    1
    32     1     2    1
    33    13    15    1
    34    13    16    1
@<TRIPOS>MOLECULE
*****
 31 34 0 0 0
SMALL
GASTEIGER

@<TRIPOS>ATOM
      1 N         144.0440  142.3804  160.8181 N.pl3   1  UNL1       -0.3363
      2 H         144.7857  142.9692  160.5492 H       1  UNL1        0.1465
      3 C         143.3759  141.5034  159.8009 C.2     1  UNL1        0.0457
      4 C         142.7266  142.1144  158.5946 C.2     1  UNL1        0.1096
      5 C         142.0586  141.2374  157.5774 C.2     1  UNL1        0.2410
      6 N         142.0398  139.7495  157.7666 N.2     1  UNL1       -0.0338
      7 C         142.6891  139.1386  158.9729 C.2     1  UNL1        0.3606
      8 N         142.8289  137.7151  159.4249 N.2     1  UNL1       -0.0343
      9 C         143.5832  137.7123  160.7213 C.2     1  UNL1        0.2321
     10 C         143.9098  139.1341  161.0706 C.2     1  UNL1        0.0421
     11 C         143.3571  140.0155  159.9900 C.3     1  UNL1        0.1732
     12 C         142.7454  143.6023  158.4055 C.2     1  UNL1        0.2474
     13 N         143.0552  144.1831  157.0576 N.am    1  UNL1       -0.3252
     14 O         142.4545  144.5093  159.5641 O.2     1  UNL1       -0.2702
     15 H         143.2462  143.5877  156.2971 H       1  UNL1        0.1453
     16 H         143.0676  145.1596  156.9334 H       1  UNL1        0.1453
     17 C         145.9677  141.6699  163.0078 C.3     1  UNL1        0.0035
     18 C         144.5439  142.0049  163.3398 C.3     1  UNL1        0.0377
     19 C         144.0818  141.9847  164.7667 C.3     1  UNL1        0.0937
     20 N         142.6578  142.3197  165.0988 N.pl3   1  UNL1       -0.2931
     21 C         141.6960  142.6749  164.0041 C.3     1  UNL1        0.0939
     22 C         142.1580  142.6951  162.5771 C.3     1  UNL1        0.0410
     23 C         143.5819  142.3601  162.2450 C.3     1  UNL1        0.0721
     24 C         142.1958  142.2994  166.5258 C.ar    1  UNL1        0.1317
     25 C         140.7302  142.3544  166.8404 C.ar    1  UNL1        0.0350
     26 C         140.2682  142.3342  168.2673 C.ar    1  UNL1        0.0147
     27 C         141.2718  142.2589  169.3796 C.ar    1  UNL1        0.0877
     28 C         142.7374  142.2039  169.0650 C.ar    1  UNL1        0.1105
     29 N         143.1994  142.2242  167.6380 N.ar    1  UNL1       -0.2285
     30 C         140.8097  142.2387  170.8065 C.1     1  UNL1        0.1020
     31 N         140.3477  142.2184  172.2334 N.1     1  UNL1       -0.1908
@<TRIPOS>BOND
     1    18    17    1
     2    18    19    1
     3    19    20    1
     4    20    24    1
     5    24    25   ar
     6    25    26   ar
     7    26    27   ar
     8    27    30    1
     9    30    31    3
    10    27    28   ar
    11    28    29   ar
    12    20    21    1
    13    21    22    1
    14    22    23    1
    15    23     1    1
    16     1     3    1
    17     3     4    2
    18     4    12    1
    19    12    13   am
    20    12    14    2
    21     4     5    1
    22     5     6    2
    23     6     7    1
    24     7     8    2
    25     8     9    1
    26     9    10    2
    27    10    11    1
    28    23    18    1
    29    11     3    1
    30    29    24   ar
    31    11     7    1
    32     1     2    1
    33    13    15    1
    34    13    16    1
@<TRIPOS>MOLECULE
*****
 31 34 0 0 0
SMALL
GASTEIGER

@<TRIPOS>ATOM
      1 N         138.3326  143.1288  160.5118 N.pl3   1  UNL1       -0.3363
      2 H         137.4018  143.4495  160.5150 H       1  UNL1        0.1465
      3 C         139.1465  143.2015  159.2539 C.2     1  UNL1        0.0457
      4 C         140.2177  144.2420  159.1128 C.2     1  UNL1        0.1096
      5 C         141.0317  144.3147  157.8549 C.2     1  UNL1        0.2410
      6 N         140.7744  143.3469  156.7381 N.2     1  UNL1       -0.0338
      7 C         139.7032  142.3064  156.8793 C.2     1  UNL1        0.3606
      8 N         139.2252  141.2261  155.9549 N.2     1  UNL1       -0.0343
      9 C         138.1159  140.4858  156.6413 C.2     1  UNL1        0.2321
     10 C         137.9083  141.1085  157.9901 C.2     1  UNL1        0.0421
     11 C         138.8893  142.2337  158.1371 C.3     1  UNL1        0.1732
     12 C         140.4750  145.2097  160.2295 C.2     1  UNL1        0.2474
     13 N         141.8123  145.2328  160.9088 N.am    1  UNL1       -0.3252
     14 O         139.3952  146.1543  160.6671 O.2     1  UNL1       -0.2702
     15 H         142.5210  144.6128  160.6216 H       1  UNL1        0.1453
     16 H         141.9812  145.8680  161.6418 H       1  UNL1        0.1453
     17 C         137.7637  144.4190  163.1598 C.3     1  UNL1        0.0035
     18 C         138.6524  143.2127  163.0887 C.3     1  UNL1        0.0377
     19 C         139.2566  142.6514  164.3416 C.3     1  UNL1        0.0937
     20 N         140.1453  141.4450  164.2706 N.pl3   1  UNL1       -0.2931
     21 C         140.4297  140.8000  162.9466 C.3     1  UNL1        0.0939
     22 C         139.8255  141.3612  161.6936 C.3     1  UNL1        0.0410
     23 C         138.9368  142.5675  161.7647 C.3     1  UNL1        0.0721
     24 C         140.7496  140.8837  165.5236 C.ar    1  UNL1        0.1317
     25 C         139.8814  140.6028  166.7141 C.ar    1  UNL1        0.0350
     26 C         140.4856  140.0416  167.9671 C.ar    1  UNL1        0.0147
     27 C         141.9579  139.7613  168.0295 C.ar    1  UNL1        0.0877
     28 C         142.8260  140.0422  166.8389 C.ar    1  UNL1        0.1105
     29 N         142.2218  140.6035  165.5859 N.ar    1  UNL1       -0.2285
     30 C         142.5620  139.2001  169.2825 C.1     1  UNL1        0.1020
     31 N         143.1662  138.6389  170.5355 N.1     1  UNL1       -0.1908
@<TRIPOS>BOND
     1    18    17    1
     2    18    19    1
     3    19    20    1
     4    20    24    1
     5    24    25   ar
     6    25    26   ar
     7    26    27   ar
     8    27    30    1
     9    30    31    3
    10    27    28   ar
    11    28    29   ar
    12    20    21    1
    13    21    22    1
    14    22    23    1
    15    23     1    1
    16     1     3    1
    17     3     4    2
    18     4    12    1
    19    12    13   am
    20    12    14    2
    21     4     5    1
    22     5     6    2
    23     6     7    1
    24     7     8    2
    25     8     9    1
    26     9    10    2
    27    10    11    1
    28    23    18    1
    29    11     3    1
    30    29    24   ar
    31    11     7    1
    32     1     2    1
    33    13    15    1
    34    13    16    1
@<TRIPOS>MOLECULE
*****
 31 34 0 0 0
SMALL
GASTEIGER

@<TRIPOS>ATOM
      1 N         142.1955  144.3992  160.4961 N.pl3   1  UNL1       -0.3363
      2 H         142.6199  145.2871  160.4681 H       1  UNL1        0.1465
      3 C         141.9378  143.6506  159.2221 C.2     1  UNL1        0.0457
      4 C         141.0194  144.2274  158.1859 C.2     1  UNL1        0.1096
      5 C         140.7617  143.4788  156.9119 C.2     1  UNL1        0.2410
      6 N         141.4223  142.1533  156.6740 N.2     1  UNL1       -0.0338
      7 C         142.3408  141.5765  157.7103 C.2     1  UNL1        0.3606
      8 N         143.1282  140.3006  157.7551 N.2     1  UNL1       -0.0343
      9 C         143.8726  140.2606  159.0566 C.2     1  UNL1        0.2321
     10 C         143.5452  141.5119  159.8164 C.2     1  UNL1        0.0421
     11 C         142.5985  142.3251  158.9843 C.3     1  UNL1        0.1732
     12 C         140.3587  145.5529  158.4237 C.2     1  UNL1        0.2474
     13 N         140.2560  146.5506  157.3082 N.am    1  UNL1       -0.3252
     14 O         139.8009  145.8808  159.7768 O.2     1  UNL1       -0.2702
     15 H         140.6222  146.3353  156.4200 H       1  UNL1        0.1453
     16 H         139.8224  147.4205  157.4642 H       1  UNL1        0.1453
     17 C         144.0971  144.5034  162.8142 C.3     1  UNL1        0.0035
     18 C         142.7575  143.8471  162.9719 C.3     1  UNL1        0.0377
     19 C         142.3687  143.2429  164.2886 C.3     1  UNL1        0.0937
     20 N         141.0291  142.5866  164.4463 N.pl3   1  UNL1       -0.2931
     21 C         140.0784  142.5345  163.2873 C.3     1  UNL1        0.0939
     22 C         140.4672  143.1387  161.9705 C.3     1  UNL1        0.0410
     23 C         141.8067  143.7950  161.8128 C.3     1  UNL1        0.0721
     24 C         140.6403  141.9824  165.7631 C.ar    1  UNL1        0.1317
     25 C         139.9530  140.6498  165.8030 C.ar    1  UNL1        0.0350
     26 C         139.5642  140.0456  167.1197 C.ar    1  UNL1        0.0147
     27 C         139.8628  140.7741  168.3965 C.ar    1  UNL1        0.0877
     28 C         140.5502  142.1067  168.3566 C.ar    1  UNL1        0.1105
     29 N         140.9390  142.7109  167.0398 N.ar    1  UNL1       -0.2285
     30 C         139.4741  140.1698  169.7132 C.1     1  UNL1        0.1020
     31 N         139.0853  139.5656  171.0299 N.1     1  UNL1       -0.1908
@<TRIPOS>BOND
     1    18    17    1
     2    18    19    1
     3    19    20    1
     4    20    24    1
     5    24    25   ar
     6    25    26   ar
     7    26    27   ar
     8    27    30    1
     9    30    31    3
    10    27    28   ar
    11    28    29   ar
    12    20    21    1
    13    21    22    1
    14    22    23    1
    15    23     1    1
    16     1     3    1
    17     3     4    2
    18     4    12    1
    19    12    13   am
    20    12    14    2
    21     4     5    1
    22     5     6    2
    23     6     7    1
    24     7     8    2
    25     8     9    1
    26     9    10    2
    27    10    11    1
    28    23    18    1
    29    11     3    1
    30    29    24   ar
    31    11     7    1
    32     1     2    1
    33    13    15    1
    34    13    16    1
@<TRIPOS>MOLECULE
*****
 31 34 0 0 0
SMALL
GASTEIGER

@<TRIPOS>ATOM
      1 N         141.1085  142.5256  166.9597 N.pl3   1  UNL1       -0.3363
      2 H         141.1506  143.4439  167.3121 H       1  UNL1        0.1465
      3 C         141.5826  141.3772  167.8003 C.2     1  UNL1        0.0457
      4 C         141.2112  141.3067  169.2519 C.2     1  UNL1        0.1096
      5 C         141.6852  140.1583  170.0924 C.2     1  UNL1        0.2410
      6 N         142.5306  139.0804  169.4814 N.2     1  UNL1       -0.0338
      7 C         142.9019  139.1509  168.0297 C.2     1  UNL1        0.3606
      8 N         143.7165  138.2428  167.1568 N.2     1  UNL1       -0.0343
      9 C         143.7459  138.8299  165.7769 C.2     1  UNL1        0.2321
     10 C         142.9495  140.1009  165.7969 C.2     1  UNL1        0.0421
     11 C         142.4279  140.2992  167.1892 C.3     1  UNL1        0.1732
     12 C         140.3658  142.3847  169.8629 C.2     1  UNL1        0.2474
     13 N         139.1775  142.0203  170.7027 N.am    1  UNL1       -0.3252
     14 O         140.7087  143.8268  169.6342 O.2     1  UNL1       -0.2702
     15 H         138.9525  141.0737  170.8528 H       1  UNL1        0.1453
     16 H         138.6227  142.7277  171.1038 H       1  UNL1        0.1453
     17 C         142.4919  143.7021  164.5718 C.3     1  UNL1        0.0035
     18 C         141.2621  142.8632  164.3883 C.3     1  UNL1        0.0377
     19 C         140.7240  142.6124  163.0108 C.3     1  UNL1        0.0937
     20 N         139.4941  141.7734  162.8272 N.pl3   1  UNL1       -0.2931
     21 C         138.8025  141.1852  164.0211 C.3     1  UNL1        0.0939
     22 C         139.3406  141.4359  165.3987 C.3     1  UNL1        0.0410
     23 C         140.5704  142.2748  165.5822 C.3     1  UNL1        0.0721
     24 C         138.9560  141.5227  161.4496 C.ar    1  UNL1        0.1317
     25 C         138.2979  140.2136  161.1283 C.ar    1  UNL1        0.0350
     26 C         137.7598  139.9629  159.7508 C.ar    1  UNL1        0.0147
     27 C         137.8798  141.0213  158.6946 C.ar    1  UNL1        0.0877
     28 C         138.5379  142.3304  159.0159 C.ar    1  UNL1        0.1105
     29 N         139.0760  142.5811  160.3935 N.ar    1  UNL1       -0.2285
     30 C         137.3417  140.7705  157.3171 C.1     1  UNL1        0.1020
     31 N         136.8036  140.5198  155.9396 N.1     1  UNL1       -0.1908
@<TRIPOS>BOND
     1    18    17    1
     2    18    19    1
     3    19    20    1
     4    20    24    1
     5    24    25   ar
     6    25    26   ar
     7    26    27   ar
     8    27    30    1
     9    30    31    3
    10    27    28   ar
    11    28    29   ar
    12    20    21    1
    13    21    22    1
    14    22    23    1
    15    23     1    1
    16     1     3    1
    17     3     4    2
    18     4    12    1
    19    12    13   am
    20    12    14    2
    21     4     5    1
    22     5     6    2
    23     6     7    1
    24     7     8    2
    25     8     9    1
    26     9    10    2
    27    10    11    1
    28    23    18    1
    29    11     3    1
    30    29    24   ar
    31    11     7    1
    32     1     2    1
    33    13    15    1
    34    13    16    1
