@<TRIPOS>MOLECULE
*****
 28 31 0 0 0
SMALL
GASTEIGER

@<TRIPOS>ATOM
      1 C         137.3213  140.9950  162.8574 C.3     1  UNL1        0.0233
      2 C         138.3398  141.6190  163.7646 C.3     1  UNL1        0.0956
      3 C         138.6085  141.0215  165.1140 C.3     1  UNL1        0.1135
      4 N         139.6270  141.6455  166.0213 N.am    1  UNL1       -0.2726
      5 C         139.8956  141.0479  167.3707 C.2     1  UNL1        0.2491
      6 O         139.1458  139.8264  167.8128 O.2     1  UNL1       -0.2699
      7 C         140.3769  142.8671  165.5793 C.3     1  UNL1        0.1152
      8 C         140.1082  143.4646  164.2299 C.3     1  UNL1        0.1153
      9 N         139.0897  142.8406  163.3226 N.am    1  UNL1       -0.2716
     10 C         138.8210  143.4381  161.9733 C.2     1  UNL1        0.2883
     11 O         137.8025  142.8141  161.0660 O.2     1  UNL1       -0.2664
     12 C         140.9142  141.6720  168.2779 C.ar    1  UNL1        0.0536
     13 C         140.5217  142.8048  169.1793 C.ar    1  UNL1        0.0045
     14 C         141.5403  143.4289  170.0866 C.ar    1  UNL1        0.0001
     15 C         142.9513  142.9200  170.0925 C.ar    1  UNL1        0.0000
     16 C         143.3437  141.7872  169.1911 C.ar    1  UNL1        0.0001
     17 C         142.3252  141.1631  168.2838 C.ar    1  UNL1        0.0045
     18 C         139.5709  144.6597  161.5312 C.2     1  UNL1        0.2516
     19 O         139.2034  146.0055  162.0821 O.2     1  UNL1       -0.2816
     20 C         140.6882  144.5354  160.5381 C.2     1  UNL1        0.0814
     21 C         141.9834  143.8103  160.7543 C.2     1  UNL1        0.1034
     22 N         142.8021  143.9411  159.5043 N.2     1  UNL1       -0.2461
     23 C         142.0130  144.7472  158.5155 C.2     1  UNL1        0.0811
     24 C         142.3152  145.1941  157.1160 C.3     1  UNL1        0.0749
     25 C         141.3111  146.0083  156.3553 C.2     1  UNL1        0.0009
     26 C         140.0046  146.3756  156.9943 C.2     1  UNL1        0.0947
     27 N         139.7023  145.9287  158.3938 N.2     1  UNL1       -0.2428
     28 C         140.7065  145.1144  159.1545 C.2     1  UNL1        0.0998
@<TRIPOS>BOND
     1     2     1    1
     2     2     3    1
     3     3     4    1
     4     4     5   am
     5     5     6    2
     6     5    12    1
     7    12    13   ar
     8    13    14   ar
     9    14    15   ar
    10    15    16   ar
    11    16    17   ar
    12     4     7    1
    13     7     8    1
    14     8     9    1
    15     9    10   am
    16    10    11    2
    17    10    18    1
    18    18    19    2
    19    18    20    1
    20    20    21    2
    21    21    22    1
    22    22    23    2
    23    23    24    1
    24    24    25    1
    25    25    26    2
    26    26    27    1
    27    27    28    2
    28     9     2    1
    29    28    20    1
    30    17    12   ar
    31    28    23    1
@<TRIPOS>MOLECULE
*****
 28 31 0 0 0
SMALL
GASTEIGER

@<TRIPOS>ATOM
      1 C         137.3022  140.9659  162.8321 C.3     1  UNL1        0.0233
      2 C         138.3208  141.5882  163.7405 C.3     1  UNL1        0.0956
      3 C         138.5804  140.9956  165.0938 C.3     1  UNL1        0.1135
      4 N         139.5990  141.6179  166.0022 N.am    1  UNL1       -0.2726
      5 C         139.8586  141.0252  167.3555 C.2     1  UNL1        0.2491
      6 O         139.0997  139.8103  167.8004 O.2     1  UNL1       -0.2699
      7 C         140.3579  142.8329  165.5574 C.3     1  UNL1        0.1152
      8 C         140.0983  143.4255  164.2041 C.3     1  UNL1        0.1153
      9 N         139.0797  142.8031  163.2957 N.am    1  UNL1       -0.2716
     10 C         138.8201  143.3958  161.9424 C.2     1  UNL1        0.2883
     11 O         137.8015  142.7734  161.0340 O.2     1  UNL1       -0.2664
     12 C         140.8771  141.6476  168.2640 C.ar    1  UNL1        0.0536
     13 C         140.4882  142.7882  169.1570 C.ar    1  UNL1        0.0045
     14 C         141.5067  143.4106  170.0655 C.ar    1  UNL1        0.0001
     15 C         142.9143  142.8923  170.0808 C.ar    1  UNL1        0.0000
     16 C         143.3032  141.7516  169.1877 C.ar    1  UNL1        0.0001
     17 C         142.2846  141.1293  168.2793 C.ar    1  UNL1        0.0045
     18 C         139.5790  144.6108  161.4975 C.2     1  UNL1        0.2516
     19 O         139.2051  145.9638  162.0261 O.2     1  UNL1       -0.2816
     20 C         140.7119  144.4727  160.5241 C.2     1  UNL1        0.0814
     21 C         140.9962  145.3840  159.3671 C.2     1  UNL1        0.1034
     22 N         142.2194  144.8735  158.6647 N.2     1  UNL1       -0.2461
     23 C         142.6909  143.6467  159.3876 C.2     1  UNL1        0.0811
     24 C         143.8483  142.7232  159.1479 C.3     1  UNL1        0.0749
     25 C         144.0740  141.5519  160.0573 C.2     1  UNL1        0.0009
     26 C         143.1423  141.3042  161.2065 C.2     1  UNL1        0.0947
     27 N         141.9849  142.2277  161.4462 N.2     1  UNL1       -0.2428
     28 C         141.7592  143.3990  160.5368 C.2     1  UNL1        0.0998
@<TRIPOS>BOND
     1     2     1    1
     2     2     3    1
     3     3     4    1
     4     4     5   am
     5     5     6    2
     6     5    12    1
     7    12    13   ar
     8    13    14   ar
     9    14    15   ar
    10    15    16   ar
    11    16    17   ar
    12     4     7    1
    13     7     8    1
    14     8     9    1
    15     9    10   am
    16    10    11    2
    17    10    18    1
    18    18    19    2
    19    18    20    1
    20    20    21    2
    21    21    22    1
    22    22    23    2
    23    23    24    1
    24    24    25    1
    25    25    26    2
    26    26    27    1
    27    27    28    2
    28     9     2    1
    29    28    20    1
    30    17    12   ar
    31    28    23    1
@<TRIPOS>MOLECULE
*****
 28 31 0 0 0
SMALL
GASTEIGER

@<TRIPOS>ATOM
      1 C         137.3023  140.8967  162.5567 C.3     1  UNL1        0.0233
      2 C         138.1891  141.2702  163.7074 C.3     1  UNL1        0.0956
      3 C         138.2637  140.3839  164.9152 C.3     1  UNL1        0.1135
      4 N         139.1505  140.7574  166.0659 N.am    1  UNL1       -0.2726
      5 C         139.2251  139.8710  167.2737 C.2     1  UNL1        0.2491
      6 O         138.4130  138.6111  167.3308 O.2     1  UNL1       -0.2699
      7 C         139.9626  142.0172  166.0088 C.3     1  UNL1        0.1152
      8 C         139.8880  142.9035  164.8010 C.3     1  UNL1        0.1153
      9 N         139.0012  142.5300  163.6503 N.am    1  UNL1       -0.2716
     10 C         138.9265  143.4163  162.4425 C.2     1  UNL1        0.2883
     11 O         138.0398  143.0428  161.2918 O.2     1  UNL1       -0.2664
     12 C         140.1119  140.2445  168.4244 C.ar    1  UNL1        0.0536
     13 C         139.5473  140.9960  169.5933 C.ar    1  UNL1        0.0045
     14 C         140.4340  141.3695  170.7440 C.ar    1  UNL1        0.0001
     15 C         141.8855  140.9914  170.7258 C.ar    1  UNL1        0.0000
     16 C         142.4501  140.2399  169.5569 C.ar    1  UNL1        0.0001
     17 C         141.5633  139.8664  168.4062 C.ar    1  UNL1        0.0045
     18 C         139.7387  144.6762  162.3854 C.2     1  UNL1        0.2516
     19 O         139.0694  145.9875  162.0982 O.2     1  UNL1       -0.2816
     20 C         141.2201  144.6247  162.6155 C.2     1  UNL1        0.0814
     21 C         141.9893  145.4580  163.5972 C.2     1  UNL1        0.1034
     22 N         143.4369  145.0791  163.4927 N.2     1  UNL1       -0.2461
     23 C         143.5623  144.0116  162.4464 C.2     1  UNL1        0.0811
     24 C         144.7470  143.2591  161.9173 C.3     1  UNL1        0.0749
     25 C         144.5616  142.2256  160.8460 C.2     1  UNL1        0.0009
     26 C         143.1915  141.9448  160.3039 C.2     1  UNL1        0.0947
     27 N         142.0068  142.6974  160.8330 N.2     1  UNL1       -0.2428
     28 C         142.1922  143.7308  161.9042 C.2     1  UNL1        0.0998
@<TRIPOS>BOND
     1     2     1    1
     2     2     3    1
     3     3     4    1
     4     4     5   am
     5     5     6    2
     6     5    12    1
     7    12    13   ar
     8    13    14   ar
     9    14    15   ar
    10    15    16   ar
    11    16    17   ar
    12     4     7    1
    13     7     8    1
    14     8     9    1
    15     9    10   am
    16    10    11    2
    17    10    18    1
    18    18    19    2
    19    18    20    1
    20    20    21    2
    21    21    22    1
    22    22    23    2
    23    23    24    1
    24    24    25    1
    25    25    26    2
    26    26    27    1
    27    27    28    2
    28     9     2    1
    29    28    20    1
    30    17    12   ar
    31    28    23    1
@<TRIPOS>MOLECULE
*****
 28 31 0 0 0
SMALL
GASTEIGER

@<TRIPOS>ATOM
      1 C         144.7744  139.9760  162.7099 C.3     1  UNL1        0.0233
      2 C         144.0306  140.5364  163.8858 C.3     1  UNL1        0.0956
      3 C         143.8600  139.7121  165.1274 C.3     1  UNL1        0.1135
      4 N         143.1162  140.2725  166.3033 N.am    1  UNL1       -0.2726
      5 C         142.9457  139.4482  167.5449 C.2     1  UNL1        0.2491
      6 O         143.5190  138.0636  167.6106 O.2     1  UNL1       -0.2699
      7 C         142.5428  141.6570  166.2376 C.3     1  UNL1        0.1152
      8 C         142.7133  142.4812  164.9960 C.3     1  UNL1        0.1153
      9 N         143.4572  141.9208  163.8201 N.am    1  UNL1       -0.2716
     10 C         143.6277  142.7451  162.5785 C.2     1  UNL1        0.2883
     11 O         144.3716  142.1847  161.4026 O.2     1  UNL1       -0.2664
     12 C         142.2018  140.0085  168.7208 C.ar    1  UNL1        0.0536
     13 C         140.7079  139.8923  168.7878 C.ar    1  UNL1        0.0045
     14 C         139.9640  140.4526  169.9637 C.ar    1  UNL1        0.0001
     15 C         140.7141  141.1292  171.0726 C.ar    1  UNL1        0.0000
     16 C         142.2080  141.2454  171.0055 C.ar    1  UNL1        0.0001
     17 C         142.9519  140.6851  169.8296 C.ar    1  UNL1        0.0045
     18 C         143.0544  144.1297  162.5128 C.2     1  UNL1        0.2516
     19 O         143.9174  145.3146  162.8304 O.2     1  UNL1       -0.2816
     20 C         141.6179  144.3292  162.1294 C.2     1  UNL1        0.0814
     21 C         141.1026  144.5869  160.7445 C.2     1  UNL1        0.1034
     22 N         139.6109  144.7229  160.8229 N.2     1  UNL1       -0.2461
     23 C         139.2042  144.5494  162.2563 C.2     1  UNL1        0.0811
     24 C         137.8647  144.5815  162.9305 C.3     1  UNL1        0.0749
     25 C         137.7657  144.3702  164.4122 C.2     1  UNL1        0.0009
     26 C         139.0061  144.1268  165.2197 C.2     1  UNL1        0.0947
     27 N         140.3456  144.0947  164.5455 N.2     1  UNL1       -0.2428
     28 C         140.4447  144.3060  163.0638 C.2     1  UNL1        0.0998
@<TRIPOS>BOND
     1     2     1    1
     2     2     3    1
     3     3     4    1
     4     4     5   am
     5     5     6    2
     6     5    12    1
     7    12    13   ar
     8    13    14   ar
     9    14    15   ar
    10    15    16   ar
    11    16    17   ar
    12     4     7    1
    13     7     8    1
    14     8     9    1
    15     9    10   am
    16    10    11    2
    17    10    18    1
    18    18    19    2
    19    18    20    1
    20    20    21    2
    21    21    22    1
    22    22    23    2
    23    23    24    1
    24    24    25    1
    25    25    26    2
    26    26    27    1
    27    27    28    2
    28     9     2    1
    29    28    20    1
    30    17    12   ar
    31    28    23    1
@<TRIPOS>MOLECULE
*****
 28 31 0 0 0
SMALL
GASTEIGER

@<TRIPOS>ATOM
      1 C         138.5674  138.5514  163.0065 C.3     1  UNL1        0.0233
      2 C         139.3864  139.2527  164.0492 C.3     1  UNL1        0.0956
      3 C         138.9760  139.1929  165.4907 C.3     1  UNL1        0.1135
      4 N         139.7951  139.8942  166.5335 N.am    1  UNL1       -0.2726
      5 C         139.3846  139.8343  167.9750 C.2     1  UNL1        0.2491
      6 O         138.1552  139.0731  168.3738 O.2     1  UNL1       -0.2699
      7 C         141.0245  140.6553  166.1347 C.3     1  UNL1        0.1152
      8 C         141.4349  140.7152  164.6932 C.3     1  UNL1        0.1153
      9 N         140.6159  140.0139  163.6505 N.am    1  UNL1       -0.2716
     10 C         141.0262  140.0737  162.2090 C.2     1  UNL1        0.2883
     11 O         140.2072  139.3724  161.1662 O.2     1  UNL1       -0.2664
     12 C         140.2037  140.5356  169.0177 C.ar    1  UNL1        0.0536
     13 C         139.9534  141.9834  169.3195 C.ar    1  UNL1        0.0045
     14 C         140.7725  142.6847  170.3622 C.ar    1  UNL1        0.0001
     15 C         141.8419  141.9382  171.1032 C.ar    1  UNL1        0.0000
     16 C         142.0921  140.4903  170.8015 C.ar    1  UNL1        0.0001
     17 C         141.2730  139.7890  169.7587 C.ar    1  UNL1        0.0045
     18 C         142.2558  140.8350  161.8101 C.2     1  UNL1        0.2516
     19 O         143.6136  140.2421  162.0439 O.2     1  UNL1       -0.2816
     20 C         142.1273  142.1890  161.1776 C.2     1  UNL1        0.0814
     21 C         142.9237  142.6969  160.0123 C.2     1  UNL1        0.1034
     22 N         142.4685  144.0946  159.7139 N.2     1  UNL1       -0.2461
     23 C         141.3908  144.4506  160.6947 C.2     1  UNL1        0.0811
     24 C         140.5743  145.6950  160.8809 C.3     1  UNL1        0.0749
     25 C         139.5469  145.7616  161.9717 C.2     1  UNL1        0.0009
     26 C         139.3360  144.5838  162.8764 C.2     1  UNL1        0.0947
     27 N         140.1526  143.3394  162.6902 N.2     1  UNL1       -0.2428
     28 C         141.1800  143.2728  161.5993 C.2     1  UNL1        0.0998
@<TRIPOS>BOND
     1     2     1    1
     2     2     3    1
     3     3     4    1
     4     4     5   am
     5     5     6    2
     6     5    12    1
     7    12    13   ar
     8    13    14   ar
     9    14    15   ar
    10    15    16   ar
    11    16    17   ar
    12     4     7    1
    13     7     8    1
    14     8     9    1
    15     9    10   am
    16    10    11    2
    17    10    18    1
    18    18    19    2
    19    18    20    1
    20    20    21    2
    21    21    22    1
    22    22    23    2
    23    23    24    1
    24    24    25    1
    25    25    26    2
    26    26    27    1
    27    27    28    2
    28     9     2    1
    29    28    20    1
    30    17    12   ar
    31    28    23    1
@<TRIPOS>MOLECULE
*****
 28 31 0 0 0
SMALL
GASTEIGER

@<TRIPOS>ATOM
      1 C         141.2622  138.1911  162.7278 C.3     1  UNL1        0.0233
      2 C         141.0871  139.0933  163.9133 C.3     1  UNL1        0.0956
      3 C         141.8804  138.8519  165.1632 C.3     1  UNL1        0.1135
      4 N         141.7053  139.7541  166.3487 N.am    1  UNL1       -0.2726
      5 C         142.4987  139.5126  167.5986 C.2     1  UNL1        0.2491
      6 O         143.4672  138.3690  167.6631 O.2     1  UNL1       -0.2699
      7 C         140.7369  140.8978  166.2843 C.3     1  UNL1        0.1152
      8 C         139.9435  141.1392  165.0344 C.3     1  UNL1        0.1153
      9 N         140.1186  140.2370  163.8489 N.am    1  UNL1       -0.2716
     10 C         139.3253  140.4784  162.5990 C.2     1  UNL1        0.2883
     11 O         139.5004  139.5762  161.4135 O.2     1  UNL1       -0.2664
     12 C         142.3236  140.4148  168.7841 C.ar    1  UNL1        0.0536
     13 C         143.0936  141.6993  168.8693 C.ar    1  UNL1        0.0045
     14 C         142.9184  142.6015  170.0548 C.ar    1  UNL1        0.0001
     15 C         141.9733  142.2193  171.1551 C.ar    1  UNL1        0.0000
     16 C         141.2034  140.9348  171.0698 C.ar    1  UNL1        0.0001
     17 C         141.3785  140.0326  169.8844 C.ar    1  UNL1        0.0045
     18 C         138.3568  141.6221  162.5345 C.2     1  UNL1        0.2516
     19 O         136.9119  141.4011  162.8713 O.2     1  UNL1       -0.2816
     20 C         138.8332  142.9866  162.1333 C.2     1  UNL1        0.0814
     21 C         138.5354  144.2704  162.8496 C.2     1  UNL1        0.1034
     22 N         139.2093  145.3841  162.1042 N.2     1  UNL1       -0.2461
     23 C         139.9236  144.7886  160.9273 C.2     1  UNL1        0.0811
     24 C         140.7556  145.4042  159.8416 C.3     1  UNL1        0.0749
     25 C         141.3552  144.5380  158.7739 C.2     1  UNL1        0.0009
     26 C         141.1228  143.0562  158.7918 C.2     1  UNL1        0.0947
     27 N         140.2908  142.4407  159.8775 N.2     1  UNL1       -0.2428
     28 C         139.6912  143.3069  160.9452 C.2     1  UNL1        0.0998
@<TRIPOS>BOND
     1     2     1    1
     2     2     3    1
     3     3     4    1
     4     4     5   am
     5     5     6    2
     6     5    12    1
     7    12    13   ar
     8    13    14   ar
     9    14    15   ar
    10    15    16   ar
    11    16    17   ar
    12     4     7    1
    13     7     8    1
    14     8     9    1
    15     9    10   am
    16    10    11    2
    17    10    18    1
    18    18    19    2
    19    18    20    1
    20    20    21    2
    21    21    22    1
    22    22    23    2
    23    23    24    1
    24    24    25    1
    25    25    26    2
    26    26    27    1
    27    27    28    2
    28     9     2    1
    29    28    20    1
    30    17    12   ar
    31    28    23    1
@<TRIPOS>MOLECULE
*****
 28 31 0 0 0
SMALL
GASTEIGER

@<TRIPOS>ATOM
      1 C         144.8377  140.3229  162.8621 C.3     1  UNL1        0.0233
      2 C         144.0350  140.8408  164.0185 C.3     1  UNL1        0.0956
      3 C         143.8245  139.9818  165.2300 C.3     1  UNL1        0.1135
      4 N         143.0217  140.4998  166.3864 N.am    1  UNL1       -0.2726
      5 C         142.8113  139.6407  167.5979 C.2     1  UNL1        0.2491
      6 O         143.4036  138.2637  167.6530 O.2     1  UNL1       -0.2699
      7 C         142.4294  141.8767  166.3314 C.3     1  UNL1        0.1152
      8 C         142.6399  142.7358  165.1199 C.3     1  UNL1        0.1153
      9 N         143.4426  142.2178  163.9635 N.am    1  UNL1       -0.2716
     10 C         143.6531  143.0768  162.7519 C.2     1  UNL1        0.2883
     11 O         144.4559  142.5589  161.5955 O.2     1  UNL1       -0.2664
     12 C         142.0085  140.1586  168.7543 C.ar    1  UNL1        0.0536
     13 C         140.5128  140.0467  168.7390 C.ar    1  UNL1        0.0045
     14 C         139.7101  140.5647  169.8954 C.ar    1  UNL1        0.0001
     15 C         140.4030  141.1946  171.0672 C.ar    1  UNL1        0.0000
     16 C         141.8987  141.3065  171.0825 C.ar    1  UNL1        0.0001
     17 C         142.7015  140.7885  169.9261 C.ar    1  UNL1        0.0045
     18 C         143.0608  144.4539  162.6968 C.2     1  UNL1        0.2516
     19 O         143.6750  145.5668  163.4930 O.2     1  UNL1       -0.2816
     20 C         141.8543  144.7179  161.8455 C.2     1  UNL1        0.0814
     21 C         140.5375  145.2534  162.3242 C.2     1  UNL1        0.1034
     22 N         139.6222  145.3591  161.1406 N.2     1  UNL1       -0.2461
     23 C         140.3734  144.8890  159.9303 C.2     1  UNL1        0.0811
     24 C         139.9794  144.7705  158.4878 C.3     1  UNL1        0.0749
     25 C         140.9650  144.2558  157.4811 C.2     1  UNL1        0.0009
     26 C         142.3445  143.8595  157.9168 C.2     1  UNL1        0.0947
     27 N         142.7385  143.9779  159.3592 N.2     1  UNL1       -0.2428
     28 C         141.7529  144.4926  160.3660 C.2     1  UNL1        0.0998
@<TRIPOS>BOND
     1     2     1    1
     2     2     3    1
     3     3     4    1
     4     4     5   am
     5     5     6    2
     6     5    12    1
     7    12    13   ar
     8    13    14   ar
     9    14    15   ar
    10    15    16   ar
    11    16    17   ar
    12     4     7    1
    13     7     8    1
    14     8     9    1
    15     9    10   am
    16    10    11    2
    17    10    18    1
    18    18    19    2
    19    18    20    1
    20    20    21    2
    21    21    22    1
    22    22    23    2
    23    23    24    1
    24    24    25    1
    25    25    26    2
    26    26    27    1
    27    27    28    2
    28     9     2    1
    29    28    20    1
    30    17    12   ar
    31    28    23    1
@<TRIPOS>MOLECULE
*****
 28 31 0 0 0
SMALL
GASTEIGER

@<TRIPOS>ATOM
      1 C         138.8149  137.8155  163.2396 C.3     1  UNL1        0.0233
      2 C         139.5813  138.5816  164.2768 C.3     1  UNL1        0.0956
      3 C         139.0262  138.7294  165.6625 C.3     1  UNL1        0.1135
      4 N         139.7926  139.4954  166.6997 N.am    1  UNL1       -0.2726
      5 C         139.2375  139.6431  168.0853 C.2     1  UNL1        0.2491
      6 O         137.9160  139.0249  168.4338 O.2     1  UNL1       -0.2699
      7 C         141.1141  140.1137  166.3513 C.3     1  UNL1        0.1152
      8 C         141.6692  139.9659  164.9656 C.3     1  UNL1        0.1153
      9 N         140.9027  139.1998  163.9284 N.am    1  UNL1       -0.2716
     10 C         141.4578  139.0520  162.5427 C.2     1  UNL1        0.2883
     11 O         140.6914  138.2860  161.5055 O.2     1  UNL1       -0.2664
     12 C         140.0039  140.4092  169.1225 C.ar    1  UNL1        0.0536
     13 C         139.7027  141.8595  169.3586 C.ar    1  UNL1        0.0045
     14 C         140.4691  142.6256  170.3958 C.ar    1  UNL1        0.0001
     15 C         141.5368  141.9413  171.1970 C.ar    1  UNL1        0.0000
     16 C         141.8380  140.4909  170.9609 C.ar    1  UNL1        0.0001
     17 C         141.0716  139.7249  169.9237 C.ar    1  UNL1        0.0045
     18 C         142.7794  139.6703  162.1943 C.2     1  UNL1        0.2516
     19 O         144.0204  138.8281  162.1780 O.2     1  UNL1       -0.2816
     20 C         142.8597  141.1309  161.8620 C.2     1  UNL1        0.0814
     21 C         142.5478  141.7511  160.5324 C.2     1  UNL1        0.1034
     22 N         142.7614  143.2312  160.6498 N.2     1  UNL1       -0.2461
     23 C         143.2055  143.5257  162.0520 C.2     1  UNL1        0.0811
     24 C         143.5623  144.8081  162.7433 C.3     1  UNL1        0.0749
     25 C         143.9799  144.7924  164.1839 C.2     1  UNL1        0.0009
     26 C         144.0407  143.4944  164.9331 C.2     1  UNL1        0.0947
     27 N         143.6838  142.2119  164.2418 N.2     1  UNL1       -0.2428
     28 C         143.2662  142.2276  162.8012 C.2     1  UNL1        0.0998
@<TRIPOS>BOND
     1     2     1    1
     2     2     3    1
     3     3     4    1
     4     4     5   am
     5     5     6    2
     6     5    12    1
     7    12    13   ar
     8    13    14   ar
     9    14    15   ar
    10    15    16   ar
    11    16    17   ar
    12     4     7    1
    13     7     8    1
    14     8     9    1
    15     9    10   am
    16    10    11    2
    17    10    18    1
    18    18    19    2
    19    18    20    1
    20    20    21    2
    21    21    22    1
    22    22    23    2
    23    23    24    1
    24    24    25    1
    25    25    26    2
    26    26    27    1
    27    27    28    2
    28     9     2    1
    29    28    20    1
    30    17    12   ar
    31    28    23    1
@<TRIPOS>MOLECULE
*****
 28 31 0 0 0
SMALL
GASTEIGER

@<TRIPOS>ATOM
      1 C         142.5891  141.8638  157.9054 C.3     1  UNL1        0.0233
      2 C         142.1277  140.4456  157.7449 C.3     1  UNL1        0.0956
      3 C         143.0100  139.4425  157.0628 C.3     1  UNL1        0.1135
      4 N         142.5487  138.0243  156.9023 N.am    1  UNL1       -0.2726
      5 C         143.4310  137.0213  156.2201 C.2     1  UNL1        0.2491
      6 O         144.7748  137.4364  155.6985 O.2     1  UNL1       -0.2699
      7 C         141.2050  137.6091  157.4239 C.3     1  UNL1        0.1152
      8 C         140.3227  138.6122  158.1060 C.3     1  UNL1        0.1153
      9 N         140.7841  140.0304  158.2665 N.am    1  UNL1       -0.2716
     10 C         139.9017  141.0336  158.9487 C.2     1  UNL1        0.2883
     11 O         140.3631  142.4518  159.1092 O.2     1  UNL1       -0.2664
     12 C         142.9697  135.6030  156.0596 C.ar    1  UNL1        0.0536
     13 C         142.0540  135.2355  154.9298 C.ar    1  UNL1        0.0045
     14 C         141.5927  133.8173  154.7693 C.ar    1  UNL1        0.0001
     15 C         142.0469  132.7665  155.7386 C.ar    1  UNL1        0.0000
     16 C         142.9625  133.1341  156.8684 C.ar    1  UNL1        0.0001
     17 C         143.4239  134.5523  157.0289 C.ar    1  UNL1        0.0045
     18 C         138.5580  140.6184  159.4703 C.2     1  UNL1        0.2516
     19 O         137.4534  140.2813  158.5132 O.2     1  UNL1       -0.2816
     20 C         138.3189  140.5405  160.9491 C.2     1  UNL1        0.0814
     21 C         138.2105  139.2830  161.7596 C.2     1  UNL1        0.1034
     22 N         137.9709  139.6717  163.1884 N.2     1  UNL1       -0.2461
     23 C         137.9311  141.1694  163.2609 C.2     1  UNL1        0.0811
     24 C         137.7268  142.1136  164.4084 C.3     1  UNL1        0.0749
     25 C         137.7376  143.5948  164.1718 C.2     1  UNL1        0.0009
     26 C         137.9527  144.1317  162.7878 C.2     1  UNL1        0.0947
     27 N         138.1570  143.1875  161.6404 N.2     1  UNL1       -0.2428
     28 C         138.1462  141.7064  161.8769 C.2     1  UNL1        0.0998
@<TRIPOS>BOND
     1     2     1    1
     2     2     3    1
     3     3     4    1
     4     4     5   am
     5     5     6    2
     6     5    12    1
     7    12    13   ar
     8    13    14   ar
     9    14    15   ar
    10    15    16   ar
    11    16    17   ar
    12     4     7    1
    13     7     8    1
    14     8     9    1
    15     9    10   am
    16    10    11    2
    17    10    18    1
    18    18    19    2
    19    18    20    1
    20    20    21    2
    21    21    22    1
    22    22    23    2
    23    23    24    1
    24    24    25    1
    25    25    26    2
    26    26    27    1
    27    27    28    2
    28     9     2    1
    29    28    20    1
    30    17    12   ar
    31    28    23    1
