@<TRIPOS>MOLECULE
*****
 33 35 0 0 0
SMALL
GASTEIGER

@<TRIPOS>ATOM
      1 C         139.1034  140.4314  161.9529 C.ar    1  UNL1        0.1508
      2 C         139.0561  139.0267  161.4290 C.ar    1  UNL1        0.0778
      3 CL        139.2251  138.7675  159.9612 Cl      1  UNL1       -0.0808
      4 C         138.8399  137.8811  162.3728 C.ar    1  UNL1        0.0142
      5 C         138.6709  138.1401  163.8406 C.ar    1  UNL1        0.0187
      6 C         138.7182  139.5449  164.3645 C.ar    1  UNL1        0.0870
      7 C         138.9344  140.6905  163.4206 C.ar    1  UNL1        0.1650
      8 O         138.9817  142.0952  163.9446 O.3     1  UNL1       -0.5032
      9 H         138.8761  142.2571  164.8615 H       1  UNL1        0.2923
     10 N         138.5492  139.8040  165.8323 N.am    1  UNL1       -0.2656
     11 C         139.7490  140.0869  166.6869 C.2     1  UNL1        0.3083
     12 O         141.1178  140.1107  166.0737 O.2     1  UNL1       -0.2521
     13 N         139.5801  140.3460  168.1546 N.am    1  UNL1       -0.2672
     14 H         137.6508  139.7884  166.2347 H       1  UNL1        0.1565
     15 H         138.6818  140.3305  168.5570 H       1  UNL1        0.1564
     16 C         140.7799  140.6290  169.0092 C.ar    1  UNL1        0.0644
     17 C         141.5958  139.4950  169.5556 C.ar    1  UNL1        0.0157
     18 C         142.7956  139.7779  170.4102 C.ar    1  UNL1        0.0036
     19 C         143.1796  141.1948  170.7185 C.ar    1  UNL1        0.0306
     20 C         142.3637  142.3288  170.1721 C.ar    1  UNL1        0.1518
     21 F         142.7477  143.7456  170.4804 F       1  UNL1       -0.2032
     22 C         141.1639  142.0459  169.3175 C.ar    1  UNL1        0.0985
     23 CL        140.3480  143.1798  168.7712 Cl      1  UNL1       -0.0786
     24 S         139.3196  141.5770  161.0091 S.O2    1  UNL1        0.0108
     25 O         137.8404  141.8220  160.9675 O.2     1  UNL1       -0.1686
     26 O         140.7989  141.3320  161.0506 O.2     1  UNL1       -0.1686
     27 C         140.1846  146.1595  157.2338 C.3     1  UNL1        0.0896
     28 N         139.9684  145.0138  158.1776 N.3     1  UNL1       -0.2714
     29 C         140.3016  145.1672  159.6320 C.3     1  UNL1        0.0739
     30 C         140.0854  144.0216  160.5759 C.3     1  UNL1        0.0413
     31 C         139.5359  142.7226  160.0653 C.3     1  UNL1        0.1367
     32 C         139.2027  142.5693  158.6108 C.3     1  UNL1        0.0413
     33 C         139.4189  143.7149  157.6670 C.3     1  UNL1        0.0739
@<TRIPOS>BOND
     1    27    28    1
     2    28    29    1
     3    29    30    1
     4    30    31    1
     5    31    24    1
     6    24    25    2
     7    24    26    2
     8    24     1    1
     9     1     2   ar
    10     2     3    1
    11     2     4   ar
    12     4     5   ar
    13     5     6   ar
    14     6    10    1
    15    10    11   am
    16    11    12    2
    17    11    13   am
    18    13    16    1
    19    16    17   ar
    20    17    18   ar
    21    18    19   ar
    22    19    20   ar
    23    20    21    1
    24    20    22   ar
    25    22    23    1
    26     6     7   ar
    27     7     8    1
    28    31    32    1
    29    32    33    1
    30    33    28    1
    31     7     1   ar
    32    22    16   ar
    33    10    14    1
    34    13    15    1
    35     8     9    1
@<TRIPOS>MOLECULE
*****
 33 35 0 0 0
SMALL
GASTEIGER

@<TRIPOS>ATOM
      1 C         139.9809  145.5631  156.3197 C.ar    1  UNL1        0.1508
      2 C         138.9863  144.4699  156.0637 C.ar    1  UNL1        0.0778
      3 CL        137.7156  144.7699  155.3252 Cl      1  UNL1       -0.0808
      4 C         139.2623  143.0767  156.5462 C.ar    1  UNL1        0.0142
      5 C         140.5329  142.7766  157.2847 C.ar    1  UNL1        0.0187
      6 C         141.5275  143.8698  157.5407 C.ar    1  UNL1        0.0870
      7 C         141.2516  145.2630  157.0582 C.ar    1  UNL1        0.1650
      8 O         142.2463  146.3562  157.3143 O.3     1  UNL1       -0.5032
      9 H         143.0401  146.1688  157.7756 H       1  UNL1        0.2923
     10 N         142.7983  143.5698  158.2792 N.am    1  UNL1       -0.2656
     11 C         142.8045  143.5378  159.7789 C.2     1  UNL1        0.3083
     12 O         141.5399  143.8058  160.5400 O.2     1  UNL1       -0.2521
     13 N         144.0751  143.2378  160.5174 N.am    1  UNL1       -0.2672
     14 H         143.6282  143.3939  157.7797 H       1  UNL1        0.1565
     15 H         144.9050  143.0619  160.0179 H       1  UNL1        0.1564
     16 C         144.0813  143.2058  162.0170 C.ar    1  UNL1        0.0644
     17 C         143.8874  144.4734  162.7951 C.ar    1  UNL1        0.0157
     18 C         143.8936  144.4414  164.2947 C.ar    1  UNL1        0.0036
     19 C         144.0937  143.1417  165.0163 C.ar    1  UNL1        0.0306
     20 C         144.2876  141.8740  164.2383 C.ar    1  UNL1        0.1518
     21 F         144.4877  140.5743  164.9599 F       1  UNL1       -0.2032
     22 C         144.2814  141.9060  162.7386 C.ar    1  UNL1        0.0985
     23 CL        144.4753  140.6383  161.9606 Cl      1  UNL1       -0.0786
     24 S         139.7050  146.9563  155.8373 S.O2    1  UNL1        0.0108
     25 O         140.2343  146.5918  154.4819 O.2     1  UNL1       -0.1686
     26 O         139.1756  147.3208  157.1926 O.2     1  UNL1       -0.1686
     27 C         138.6011  152.5291  153.9073 C.3     1  UNL1        0.0896
     28 N         138.8770  151.1359  154.3898 N.3     1  UNL1       -0.2714
     29 C         139.6458  150.1813  153.5252 C.3     1  UNL1        0.0739
     30 C         139.9218  148.7881  154.0077 C.3     1  UNL1        0.0413
     31 C         139.4290  148.3495  155.3548 C.3     1  UNL1        0.1367
     32 C         138.6602  149.3041  156.2194 C.3     1  UNL1        0.0413
     33 C         138.3842  150.6973  155.7369 C.3     1  UNL1        0.0739
@<TRIPOS>BOND
     1    27    28    1
     2    28    29    1
     3    29    30    1
     4    30    31    1
     5    31    24    1
     6    24    25    2
     7    24    26    2
     8    24     1    1
     9     1     2   ar
    10     2     3    1
    11     2     4   ar
    12     4     5   ar
    13     5     6   ar
    14     6    10    1
    15    10    11   am
    16    11    12    2
    17    11    13   am
    18    13    16    1
    19    16    17   ar
    20    17    18   ar
    21    18    19   ar
    22    19    20   ar
    23    20    21    1
    24    20    22   ar
    25    22    23    1
    26     6     7   ar
    27     7     8    1
    28    31    32    1
    29    32    33    1
    30    33    28    1
    31     7     1   ar
    32    22    16   ar
    33    10    14    1
    34    13    15    1
    35     8     9    1
@<TRIPOS>MOLECULE
*****
 33 35 0 0 0
SMALL
GASTEIGER

@<TRIPOS>ATOM
      1 C         138.9952  139.8628  164.2041 C.ar    1  UNL1        0.1508
      2 C         138.9607  138.4065  163.8467 C.ar    1  UNL1        0.0778
      3 CL        139.2971  137.3724  164.8801 Cl      1  UNL1       -0.0808
      4 C         138.5899  137.9840  162.4560 C.ar    1  UNL1        0.0142
      5 C         138.2536  139.0180  161.4227 C.ar    1  UNL1        0.0187
      6 C         138.2881  140.4743  161.7801 C.ar    1  UNL1        0.0870
      7 C         138.6588  140.8968  163.1708 C.ar    1  UNL1        0.1650
      8 O         138.6933  142.3532  163.5282 O.3     1  UNL1       -0.5032
      9 H         138.4832  142.9991  162.8827 H       1  UNL1        0.2923
     10 N         137.9517  141.5084  160.7467 N.am    1  UNL1       -0.2656
     11 C         139.0184  142.0238  159.8266 C.2     1  UNL1        0.3083
     12 O         140.4214  141.5052  159.9398 O.2     1  UNL1       -0.2521
     13 N         138.6821  143.0578  158.7933 N.am    1  UNL1       -0.2672
     14 H         137.0309  141.8487  160.6724 H       1  UNL1        0.1565
     15 H         137.7613  143.3981  158.7190 H       1  UNL1        0.1564
     16 C         139.7488  143.5732  157.8732 C.ar    1  UNL1        0.0644
     17 C         139.9937  142.8981  156.5563 C.ar    1  UNL1        0.0157
     18 C         141.0603  143.4135  155.6362 C.ar    1  UNL1        0.0036
     19 C         141.8820  144.6040  156.0330 C.ar    1  UNL1        0.0306
     20 C         141.6372  145.2791  157.3499 C.ar    1  UNL1        0.1518
     21 F         142.4589  146.4696  157.7467 F       1  UNL1       -0.2032
     22 C         140.5705  144.7637  158.2700 C.ar    1  UNL1        0.0985
     23 CL        140.3256  145.4388  159.5869 Cl      1  UNL1       -0.0786
     24 S         139.3660  140.2852  165.5948 S.O2    1  UNL1        0.0108
     25 O         138.0187  139.8466  166.0873 O.2     1  UNL1       -0.1686
     26 O         140.7132  140.7239  165.1024 O.2     1  UNL1       -0.1686
     27 C         140.8491  141.9749  171.1577 C.3     1  UNL1        0.0896
     28 N         140.4783  141.5525  169.7670 N.3     1  UNL1       -0.2714
     29 C         139.6445  140.3241  169.5535 C.3     1  UNL1        0.0739
     30 C         139.2737  139.9016  168.1628 C.3     1  UNL1        0.0413
     31 C         139.7367  140.7077  166.9855 C.3     1  UNL1        0.1367
     32 C         140.5706  141.9361  167.1990 C.3     1  UNL1        0.0413
     33 C         140.9413  142.3585  168.5898 C.3     1  UNL1        0.0739
@<TRIPOS>BOND
     1    27    28    1
     2    28    29    1
     3    29    30    1
     4    30    31    1
     5    31    24    1
     6    24    25    2
     7    24    26    2
     8    24     1    1
     9     1     2   ar
    10     2     3    1
    11     2     4   ar
    12     4     5   ar
    13     5     6   ar
    14     6    10    1
    15    10    11   am
    16    11    12    2
    17    11    13   am
    18    13    16    1
    19    16    17   ar
    20    17    18   ar
    21    18    19   ar
    22    19    20   ar
    23    20    21    1
    24    20    22   ar
    25    22    23    1
    26     6     7   ar
    27     7     8    1
    28    31    32    1
    29    32    33    1
    30    33    28    1
    31     7     1   ar
    32    22    16   ar
    33    10    14    1
    34    13    15    1
    35     8     9    1
@<TRIPOS>MOLECULE
*****
 33 35 0 0 0
SMALL
GASTEIGER

@<TRIPOS>ATOM
      1 C         141.0043  140.3307  160.5095 C.ar    1  UNL1        0.1508
      2 C         140.7953  141.7010  159.9363 C.ar    1  UNL1        0.0778
      3 CL        139.9187  142.6869  160.6503 Cl      1  UNL1       -0.0808
      4 C         141.4628  142.0854  158.6492 C.ar    1  UNL1        0.0142
      5 C         142.3394  141.0995  157.9353 C.ar    1  UNL1        0.0187
      6 C         142.5483  139.7292  158.5085 C.ar    1  UNL1        0.0870
      7 C         141.8808  139.3448  159.7956 C.ar    1  UNL1        0.1650
      8 O         142.0898  137.9745  160.3688 O.3     1  UNL1       -0.5032
      9 H         142.6374  137.3586  159.9228 H       1  UNL1        0.2923
     10 N         143.4249  138.7433  157.7946 N.am    1  UNL1       -0.2656
     11 C         142.8234  137.5184  157.1718 C.2     1  UNL1        0.3083
     12 O         141.3453  137.2795  157.2630 O.2     1  UNL1       -0.2521
     13 N         143.6998  136.5325  156.4580 N.am    1  UNL1       -0.2672
     14 H         144.3950  138.9001  157.7348 H       1  UNL1        0.1565
     15 H         144.6699  136.6893  156.3981 H       1  UNL1        0.1564
     16 C         143.0983  135.3076  155.8352 C.ar    1  UNL1        0.0644
     17 C         142.5409  135.3702  154.4441 C.ar    1  UNL1        0.0157
     18 C         141.9394  134.1453  153.8213 C.ar    1  UNL1        0.0036
     19 C         141.8952  132.8578  154.5897 C.ar    1  UNL1        0.0306
     20 C         142.4527  132.7952  155.9809 C.ar    1  UNL1        0.1518
     21 F         142.4086  131.5077  156.7493 F       1  UNL1       -0.2032
     22 C         143.0542  134.0201  156.6037 C.ar    1  UNL1        0.0985
     23 CL        143.6116  133.9575  157.9948 Cl      1  UNL1       -0.0786
     24 S         140.3368  139.9463  161.7966 S.O2    1  UNL1        0.0108
     25 O         139.2292  139.2906  161.0264 O.2     1  UNL1       -0.1686
     26 O         141.4444  140.6020  162.5669 O.2     1  UNL1       -0.1686
     27 C         137.6666  138.4087  166.9450 C.3     1  UNL1        0.0896
     28 N         138.3342  138.7931  165.6579 N.3     1  UNL1       -0.2714
     29 C         138.4244  140.2370  165.2619 C.3     1  UNL1        0.0739
     30 C         139.0919  140.6214  163.9748 C.3     1  UNL1        0.0413
     31 C         139.6692  139.5619  163.0837 C.3     1  UNL1        0.1367
     32 C         139.5790  138.1180  163.4797 C.3     1  UNL1        0.0413
     33 C         138.9115  137.7335  164.7668 C.3     1  UNL1        0.0739
@<TRIPOS>BOND
     1    27    28    1
     2    28    29    1
     3    29    30    1
     4    30    31    1
     5    31    24    1
     6    24    25    2
     7    24    26    2
     8    24     1    1
     9     1     2   ar
    10     2     3    1
    11     2     4   ar
    12     4     5   ar
    13     5     6   ar
    14     6    10    1
    15    10    11   am
    16    11    12    2
    17    11    13   am
    18    13    16    1
    19    16    17   ar
    20    17    18   ar
    21    18    19   ar
    22    19    20   ar
    23    20    21    1
    24    20    22   ar
    25    22    23    1
    26     6     7   ar
    27     7     8    1
    28    31    32    1
    29    32    33    1
    30    33    28    1
    31     7     1   ar
    32    22    16   ar
    33    10    14    1
    34    13    15    1
    35     8     9    1
@<TRIPOS>MOLECULE
*****
 33 35 0 0 0
SMALL
GASTEIGER

@<TRIPOS>ATOM
      1 C         142.7768  138.3929  157.1279 C.ar    1  UNL1        0.1508
      2 C         142.6238  139.6529  156.3285 C.ar    1  UNL1        0.0778
      3 CL        142.5124  139.5842  154.8342 Cl      1  UNL1       -0.0808
      4 C         142.5822  140.9816  157.0234 C.ar    1  UNL1        0.0142
      5 C         142.6936  141.0503  158.5177 C.ar    1  UNL1        0.0187
      6 C         142.8466  139.7903  159.3170 C.ar    1  UNL1        0.0870
      7 C         142.8882  138.4616  158.6222 C.ar    1  UNL1        0.1650
      8 O         143.0412  137.2016  159.4216 O.3     1  UNL1       -0.5032
      9 H         143.1107  137.2446  160.3551 H       1  UNL1        0.2923
     10 N         142.9580  139.8590  160.8114 N.am    1  UNL1       -0.2656
     11 C         141.7294  139.7274  161.6618 C.2     1  UNL1        0.3083
     12 O         140.3895  139.5270  161.0180 O.2     1  UNL1       -0.2521
     13 N         141.8407  139.7960  163.1561 N.am    1  UNL1       -0.2672
     14 H         143.8374  139.9905  161.2339 H       1  UNL1        0.1565
     15 H         142.7202  139.9275  163.5787 H       1  UNL1        0.1564
     16 C         140.6122  139.6644  164.0066 C.ar    1  UNL1        0.0644
     17 C         139.8386  140.8874  164.4012 C.ar    1  UNL1        0.0157
     18 C         138.6100  140.7557  165.2517 C.ar    1  UNL1        0.0036
     19 C         138.1551  139.4010  165.7075 C.ar    1  UNL1        0.0306
     20 C         138.9287  138.1779  165.3129 C.ar    1  UNL1        0.1518
     21 F         138.4737  136.8233  165.7687 F       1  UNL1       -0.2032
     22 C         140.1572  138.3096  164.4624 C.ar    1  UNL1        0.0985
     23 CL        140.9308  137.0866  164.0677 Cl      1  UNL1       -0.0786
     24 S         142.8184  137.0642  156.4331 S.O2    1  UNL1        0.0108
     25 O         141.3729  136.8439  156.7678 O.2     1  UNL1       -0.1686
     26 O         144.2639  137.2845  156.0983 O.2     1  UNL1       -0.1686
     27 C         142.9848  131.7494  153.6536 C.3     1  UNL1        0.0896
     28 N         142.9432  133.0781  154.3485 N.3     1  UNL1       -0.2714
     29 C         143.5906  133.2427  155.6915 C.3     1  UNL1        0.0739
     30 C         143.5490  134.5714  156.3863 C.3     1  UNL1        0.0413
     31 C         142.8600  135.7355  155.7382 C.3     1  UNL1        0.1367
     32 C         142.2126  135.5709  154.3952 C.3     1  UNL1        0.0413
     33 C         142.2542  134.2422  153.7003 C.3     1  UNL1        0.0739
@<TRIPOS>BOND
     1    27    28    1
     2    28    29    1
     3    29    30    1
     4    30    31    1
     5    31    24    1
     6    24    25    2
     7    24    26    2
     8    24     1    1
     9     1     2   ar
    10     2     3    1
    11     2     4   ar
    12     4     5   ar
    13     5     6   ar
    14     6    10    1
    15    10    11   am
    16    11    12    2
    17    11    13   am
    18    13    16    1
    19    16    17   ar
    20    17    18   ar
    21    18    19   ar
    22    19    20   ar
    23    20    21    1
    24    20    22   ar
    25    22    23    1
    26     6     7   ar
    27     7     8    1
    28    31    32    1
    29    32    33    1
    30    33    28    1
    31     7     1   ar
    32    22    16   ar
    33    10    14    1
    34    13    15    1
    35     8     9    1
@<TRIPOS>MOLECULE
*****
 33 35 0 0 0
SMALL
GASTEIGER

@<TRIPOS>ATOM
      1 C         143.1131  142.2111  161.3780 C.ar    1  UNL1        0.1508
      2 C         143.7961  140.9080  161.0860 C.ar    1  UNL1        0.0778
      3 CL        143.7273  140.3171  159.7090 Cl      1  UNL1       -0.0808
      4 C         144.5479  140.1956  162.1711 C.ar    1  UNL1        0.0142
      5 C         144.6167  140.7864  163.5481 C.ar    1  UNL1        0.0187
      6 C         143.9337  142.0896  163.8400 C.ar    1  UNL1        0.0870
      7 C         143.1819  142.8019  162.7550 C.ar    1  UNL1        0.1650
      8 O         142.4988  144.1051  163.0470 O.3     1  UNL1       -0.5032
      9 H         142.5418  144.4742  163.9072 H       1  UNL1        0.2923
     10 N         144.0024  142.6805  165.2171 N.am    1  UNL1       -0.2656
     11 C         143.2445  142.0447  166.3447 C.2     1  UNL1        0.3083
     12 O         142.4178  140.8181  166.0952 O.2     1  UNL1       -0.2521
     13 N         143.3133  142.6355  167.7217 N.am    1  UNL1       -0.2672
     14 H         144.5450  143.4855  165.3808 H       1  UNL1        0.1565
     15 H         143.8558  143.4406  167.8854 H       1  UNL1        0.1564
     16 C         142.5554  141.9998  168.8493 C.ar    1  UNL1        0.0644
     17 C         143.2633  141.0924  169.8112 C.ar    1  UNL1        0.0157
     18 C         142.5054  140.4566  170.9388 C.ar    1  UNL1        0.0036
     19 C         141.0396  140.7284  171.1044 C.ar    1  UNL1        0.0306
     20 C         140.3316  141.6359  170.1425 C.ar    1  UNL1        0.1518
     21 F         138.8658  141.9077  170.3082 F       1  UNL1       -0.2032
     22 C         141.0895  142.2716  169.0149 C.ar    1  UNL1        0.0985
     23 CL        140.3816  143.1791  168.0530 Cl      1  UNL1       -0.0786
     24 S         142.3613  142.9235  160.2929 S.O2    1  UNL1        0.0108
     25 O         141.0665  142.4233  160.8617 O.2     1  UNL1       -0.1686
     26 O         143.6560  143.4236  159.7242 O.2     1  UNL1       -0.1686
     27 C         139.3540  145.7728  155.9527 C.3     1  UNL1        0.0896
     28 N         140.1058  145.0605  157.0377 N.3     1  UNL1       -0.2714
     29 C         140.6677  143.6925  156.7872 C.3     1  UNL1        0.0739
     30 C         141.4195  142.9801  157.8722 C.3     1  UNL1        0.0413
     31 C         141.6094  143.6358  159.2078 C.3     1  UNL1        0.1367
     32 C         141.0476  145.0038  159.4584 C.3     1  UNL1        0.0413
     33 C         140.2958  145.7161  158.3733 C.3     1  UNL1        0.0739
@<TRIPOS>BOND
     1    27    28    1
     2    28    29    1
     3    29    30    1
     4    30    31    1
     5    31    24    1
     6    24    25    2
     7    24    26    2
     8    24     1    1
     9     1     2   ar
    10     2     3    1
    11     2     4   ar
    12     4     5   ar
    13     5     6   ar
    14     6    10    1
    15    10    11   am
    16    11    12    2
    17    11    13   am
    18    13    16    1
    19    16    17   ar
    20    17    18   ar
    21    18    19   ar
    22    19    20   ar
    23    20    21    1
    24    20    22   ar
    25    22    23    1
    26     6     7   ar
    27     7     8    1
    28    31    32    1
    29    32    33    1
    30    33    28    1
    31     7     1   ar
    32    22    16   ar
    33    10    14    1
    34    13    15    1
    35     8     9    1
@<TRIPOS>MOLECULE
*****
 33 35 0 0 0
SMALL
GASTEIGER

@<TRIPOS>ATOM
      1 C         136.3899  140.5471  155.3530 C.ar    1  UNL1        0.1508
      2 C         137.0550  139.3982  154.6547 C.ar    1  UNL1        0.0778
      3 CL        136.2479  138.2037  154.2400 Cl      1  UNL1       -0.0808
      4 C         138.5273  139.4438  154.3711 C.ar    1  UNL1        0.0142
      5 C         139.3343  140.6382  154.7857 C.ar    1  UNL1        0.0187
      6 C         138.6692  141.7870  155.4840 C.ar    1  UNL1        0.0870
      7 C         137.1970  141.7415  155.7676 C.ar    1  UNL1        0.1650
      8 O         136.5318  142.8904  156.4660 O.3     1  UNL1       -0.5032
      9 H         137.0360  143.6365  156.7250 H       1  UNL1        0.2923
     10 N         139.4763  142.9815  155.8987 N.am    1  UNL1       -0.2656
     11 C         139.4899  144.2119  155.0408 C.2     1  UNL1        0.3083
     12 O         138.6965  144.2478  153.7683 O.2     1  UNL1       -0.2521
     13 N         140.2970  145.4064  155.4554 N.am    1  UNL1       -0.2672
     14 H         139.9970  142.9579  156.7339 H       1  UNL1        0.1565
     15 H         140.8177  145.3828  156.2906 H       1  UNL1        0.1564
     16 C         140.3106  146.6368  154.5976 C.ar    1  UNL1        0.0644
     17 C         141.0660  146.6392  153.3017 C.ar    1  UNL1        0.0157
     18 C         141.0796  147.8696  152.4438 C.ar    1  UNL1        0.0036
     19 C         140.3379  149.0976  152.8819 C.ar    1  UNL1        0.0306
     20 C         139.5826  149.0952  154.1779 C.ar    1  UNL1        0.1518
     21 F         138.8409  150.3232  154.6159 F       1  UNL1       -0.2032
     22 C         139.5689  147.8648  155.0357 C.ar    1  UNL1        0.0985
     23 CL        138.8136  147.8624  156.3316 Cl      1  UNL1       -0.0786
     24 S         134.9176  140.5015  155.6366 S.O2    1  UNL1        0.0108
     25 O         134.6330  140.9326  154.2284 O.2     1  UNL1       -0.1686
     26 O         135.2023  140.0705  157.0449 O.2     1  UNL1       -0.1686
     27 C         129.0287  140.3194  156.7712 C.3     1  UNL1        0.0896
     28 N         130.5009  140.3649  156.4876 N.3     1  UNL1       -0.2714
     29 C         131.0418  141.3413  155.4856 C.3     1  UNL1        0.0739
     30 C         132.5141  141.3869  155.2020 C.3     1  UNL1        0.0413
     31 C         133.4454  140.4560  155.9203 C.3     1  UNL1        0.1367
     32 C         132.9045  139.4796  156.9222 C.3     1  UNL1        0.0413
     33 C         131.4323  139.4340  157.2059 C.3     1  UNL1        0.0739
@<TRIPOS>BOND
     1    27    28    1
     2    28    29    1
     3    29    30    1
     4    30    31    1
     5    31    24    1
     6    24    25    2
     7    24    26    2
     8    24     1    1
     9     1     2   ar
    10     2     3    1
    11     2     4   ar
    12     4     5   ar
    13     5     6   ar
    14     6    10    1
    15    10    11   am
    16    11    12    2
    17    11    13   am
    18    13    16    1
    19    16    17   ar
    20    17    18   ar
    21    18    19   ar
    22    19    20   ar
    23    20    21    1
    24    20    22   ar
    25    22    23    1
    26     6     7   ar
    27     7     8    1
    28    31    32    1
    29    32    33    1
    30    33    28    1
    31     7     1   ar
    32    22    16   ar
    33    10    14    1
    34    13    15    1
    35     8     9    1
@<TRIPOS>MOLECULE
*****
 33 35 0 0 0
SMALL
GASTEIGER

@<TRIPOS>ATOM
      1 C         142.0464  138.2705  156.6749 C.ar    1  UNL1        0.1508
      2 C         143.1107  139.1881  156.1503 C.ar    1  UNL1        0.0778
      3 CL        144.3407  138.6195  155.5067 Cl      1  UNL1       -0.0808
      4 C         142.9452  140.6742  156.2691 C.ar    1  UNL1        0.0142
      5 C         141.7153  141.2427  156.9126 C.ar    1  UNL1        0.0187
      6 C         140.6510  140.3252  157.4373 C.ar    1  UNL1        0.0870
      7 C         140.8166  138.8391  157.3184 C.ar    1  UNL1        0.1650
      8 O         139.7522  137.9215  157.8431 O.3     1  UNL1       -0.5032
      9 H         138.9839  138.2767  158.2451 H       1  UNL1        0.2923
     10 N         139.4211  140.8937  158.0808 N.am    1  UNL1       -0.2656
     11 C         139.3925  141.1352  159.5610 C.2     1  UNL1        0.3083
     12 O         140.5939  140.8082  160.3976 O.2     1  UNL1       -0.2521
     13 N         138.1626  141.7037  160.2045 N.am    1  UNL1       -0.2672
     14 H         138.6326  141.1083  157.5317 H       1  UNL1        0.1565
     15 H         137.3742  141.9183  159.6554 H       1  UNL1        0.1564
     16 C         138.1341  141.9452  161.6847 C.ar    1  UNL1        0.0644
     17 C         138.2839  143.3383  162.2203 C.ar    1  UNL1        0.0157
     18 C         138.2553  143.5798  163.7005 C.ar    1  UNL1        0.0036
     19 C         138.0769  142.4283  164.6450 C.ar    1  UNL1        0.0306
     20 C         137.9271  141.0351  164.1094 C.ar    1  UNL1        0.1518
     21 F         137.7487  139.8836  165.0539 F       1  UNL1       -0.2032
     22 C         137.9557  140.7936  162.6292 C.ar    1  UNL1        0.0985
     23 CL        137.8059  139.4006  162.0936 Cl      1  UNL1       -0.0786
     24 S         142.2120  136.7844  156.5560 S.O2    1  UNL1        0.0108
     25 O         143.0440  136.7773  157.8041 O.2     1  UNL1       -0.1686
     26 O         141.3799  136.7916  155.3080 O.2     1  UNL1       -0.1686
     27 C         142.8742  130.8401  156.0806 C.3     1  UNL1        0.0896
     28 N         142.7086  132.3262  156.1994 N.3     1  UNL1       -0.2714
     29 C         141.6854  133.0361  155.3634 C.3     1  UNL1        0.0739
     30 C         141.5199  134.5222  155.4822 C.3     1  UNL1        0.0413
     31 C         142.3775  135.2983  156.4372 C.3     1  UNL1        0.1367
     32 C         143.4007  134.5884  157.2733 C.3     1  UNL1        0.0413
     33 C         143.5662  133.1023  157.1544 C.3     1  UNL1        0.0739
@<TRIPOS>BOND
     1    27    28    1
     2    28    29    1
     3    29    30    1
     4    30    31    1
     5    31    24    1
     6    24    25    2
     7    24    26    2
     8    24     1    1
     9     1     2   ar
    10     2     3    1
    11     2     4   ar
    12     4     5   ar
    13     5     6   ar
    14     6    10    1
    15    10    11   am
    16    11    12    2
    17    11    13   am
    18    13    16    1
    19    16    17   ar
    20    17    18   ar
    21    18    19   ar
    22    19    20   ar
    23    20    21    1
    24    20    22   ar
    25    22    23    1
    26     6     7   ar
    27     7     8    1
    28    31    32    1
    29    32    33    1
    30    33    28    1
    31     7     1   ar
    32    22    16   ar
    33    10    14    1
    34    13    15    1
    35     8     9    1
@<TRIPOS>MOLECULE
*****
 33 35 0 0 0
SMALL
GASTEIGER

@<TRIPOS>ATOM
      1 C         141.8165  142.8456  164.3508 C.ar    1  UNL1        0.1508
      2 C         143.1074  143.1976  165.0288 C.ar    1  UNL1        0.0778
      3 CL        143.4664  142.5575  166.3370 Cl      1  UNL1       -0.0808
      4 C         144.0393  144.1898  164.3985 C.ar    1  UNL1        0.0142
      5 C         143.6803  144.8299  163.0904 C.ar    1  UNL1        0.0187
      6 C         142.3894  144.4779  162.4124 C.ar    1  UNL1        0.0870
      7 C         141.4575  143.4857  163.0427 C.ar    1  UNL1        0.1650
      8 O         140.1666  143.1337  162.3647 O.3     1  UNL1       -0.5032
      9 H         139.9423  143.5336  161.5475 H       1  UNL1        0.2923
     10 N         142.0304  145.1180  161.1042 N.am    1  UNL1       -0.2656
     11 C         141.9091  144.2788  159.8669 C.2     1  UNL1        0.3083
     12 O         142.1469  142.7994  159.9378 O.2     1  UNL1       -0.2521
     13 N         141.5501  144.9188  158.5587 N.am    1  UNL1       -0.2672
     14 H         141.8743  146.0890  161.0577 H       1  UNL1        0.1565
     15 H         141.3940  145.8898  158.5122 H       1  UNL1        0.1564
     16 C         141.4288  144.0796  157.3214 C.ar    1  UNL1        0.0644
     17 C         142.5552  144.0352  156.3319 C.ar    1  UNL1        0.0157
     18 C         142.4339  143.1960  155.0945 C.ar    1  UNL1        0.0036
     19 C         141.1863  142.4011  154.8468 C.ar    1  UNL1        0.0306
     20 C         140.0598  142.4454  155.8364 C.ar    1  UNL1        0.1518
     21 F         138.8122  141.6504  155.5886 F       1  UNL1       -0.2032
     22 C         140.1811  143.2846  157.0737 C.ar    1  UNL1        0.0985
     23 CL        139.0547  143.3290  158.0632 Cl      1  UNL1       -0.0786
     24 S         140.8846  141.8535  164.9811 S.O2    1  UNL1        0.0108
     25 O         140.0562  142.9784  165.5271 O.2     1  UNL1       -0.1686
     26 O         141.7130  140.7285  164.4350 O.2     1  UNL1       -0.1686
     27 C         137.1570  137.8849  167.5020 C.3     1  UNL1        0.0896
     28 N         138.0889  138.8770  166.8717 N.3     1  UNL1       -0.2714
     29 C         138.0614  139.0941  165.3878 C.3     1  UNL1        0.0739
     30 C         138.9933  140.0862  164.7576 C.3     1  UNL1        0.0413
     31 C         139.9527  140.8613  165.6113 C.3     1  UNL1        0.1367
     32 C         139.9801  140.6442  167.0952 C.3     1  UNL1        0.0413
     33 C         139.0482  139.6521  167.7254 C.3     1  UNL1        0.0739
@<TRIPOS>BOND
     1    27    28    1
     2    28    29    1
     3    29    30    1
     4    30    31    1
     5    31    24    1
     6    24    25    2
     7    24    26    2
     8    24     1    1
     9     1     2   ar
    10     2     3    1
    11     2     4   ar
    12     4     5   ar
    13     5     6   ar
    14     6    10    1
    15    10    11   am
    16    11    12    2
    17    11    13   am
    18    13    16    1
    19    16    17   ar
    20    17    18   ar
    21    18    19   ar
    22    19    20   ar
    23    20    21    1
    24    20    22   ar
    25    22    23    1
    26     6     7   ar
    27     7     8    1
    28    31    32    1
    29    32    33    1
    30    33    28    1
    31     7     1   ar
    32    22    16   ar
    33    10    14    1
    34    13    15    1
    35     8     9    1
